version 2
run Sched1-0-20230331-13:42:44-7124
attr configname Sched1
attr datetime 20230331-13:42:44
attr experiment Sched1
attr inifile omnetpp.ini
attr iterationvars ""
attr iterationvarsf ""
attr measurement ""
attr network RadioSch
attr processid 7124
attr repetition 0
attr replication #0
attr resultdir results
attr runnumber 0
attr seedset 0
param *.usersCount 3
param *.nrOfChannels 22
param *.cycleDuration "1 ms"
param *.networkLoad 0.9
param **.user[*].generator.sendIaTime "0.2 ms"

vector 0 RadioSch.flc "delay vector" ETV
vector 1 RadioSch.flc "result nescalat" ETV
vector 2 RadioSch.flc "res scalat" ETV
vector 3 RadioSch.flc "weight vector" ETV
vector 4 RadioSch.sink lifetime:vector ETV
attr interpolationmode none
attr title "lifetime of arrived jobs, vector"
attr unit s
4	10	0	0
4	48	1	1
4	49	1	0.840825099087
4	50	1	0.468904256672
4	51	1	0.358694559338
4	52	1	0.163293274059
4	53	1	0.066267641315
4	54	1	1
4	55	1	0
4	98	2	0.621562756908
4	99	2	0.287120516843
4	100	2	0.119233946263
4	101	2	0.10449687517
4	102	2	0.022181275921
4	103	2	0.003949070696
4	104	2	1.820287922303
4	105	2	0
4	140	3	0.795026569034
4	141	3	0.437529036346
4	142	3	0.407282865613
4	143	3	0
4	182	4	0.999104422431
4	183	4	0.678056511019
4	184	4	0.554270619094
4	185	4	0.407277734856
4	186	4	0.180089946514
4	187	4	0.005625707506
4	188	4	3.635643296009
4	189	4	0
4	244	5	0.721352771487
4	245	5	0.614239627441
4	246	5	0.55278355701
4	247	5	0.25513259186
4	248	5	0.25133887802
4	249	5	0.172984715885
4	250	5	0.140557417996
4	251	5	0
4	292	6	0.951158082561
4	293	6	0.375575078305
4	294	6	5.478203068013
4	295	6	0
4	344	7	0.910304865966
4	345	7	0.698538039668
4	346	7	0.661052826464
4	347	7	0.613811485247
4	348	7	0.586205747561
4	349	7	0.308397209603
4	350	7	0.192932347442
4	351	7	0
4	390	8	0.302032978207
4	391	8	0.243616871554
4	392	8	0.136603936137
4	393	8	0.007847735816
4	394	8	0
4	438	9	0.812474921002
4	439	9	0.598860481572
4	440	9	0.569118027722
4	441	9	0.267790961067
4	442	9	0
4	476	10	0.923724629524
4	477	10	0.699761756373
4	478	10	9.102410257172
4	479	10	0
4	522	11	0.949955464456
4	523	11	0.829966087128
4	524	11	0.825928061499
4	525	11	0.817932801687
4	526	11	0.701357123914
4	527	11	0.634875075721
4	528	11	10.031778429344
4	529	11	0
4	572	12	0.856561051152
4	573	12	0.843301570856
4	574	12	0.79442248124
4	575	12	0.558584575827
4	576	12	0.157936471326
4	577	12	10.368795973358
4	578	12	0
4	626	13	0.986357343111
4	627	13	0.969003246643
4	628	13	0.439152060908
4	629	13	0.187165298886
4	630	13	0.125661754134
4	631	13	11.238019459914
4	632	13	0
4	682	14	0.949035945742
4	683	14	0.944973453983
4	684	14	0.908923003586
4	685	14	0.555774789103
4	686	14	0.487705441456
4	687	14	11.718368642744
4	688	14	0
4	726	15	0.832676805913
4	727	15	0.6628326436
4	728	15	0.612348645022
4	729	15	0.168047265327
4	730	15	0
4	770	16	0.793355289356
4	771	16	0.768649959884
4	772	16	0.698045933229
4	773	16	0.36186149232
4	774	16	0.260857742769
4	775	16	0.203375647555
4	776	16	0.02926848229
4	777	16	0
4	814	17	0.35639439168
4	815	17	0.204020837421
4	816	17	14.088334657009
4	817	17	0
4	870	18	0.997461435292
4	871	18	0.804570722193
4	872	18	0.675749780528
4	873	18	0.603964337354
4	874	18	0.536031390838
4	875	18	0.467511465898
4	876	18	0.37078432858
4	877	18	0.258792114565
4	878	18	14.319290283181
4	879	18	14.294115401293
4	880	18	14.039069860848
4	881	18	13.884902929155
4	882	18	13.737337470804
4	883	18	13.714948238677
4	884	18	13.586609298271
4	885	18	13.545368641865
4	886	18	0
4	944	19	0.837302593575
4	945	19	0.666486646446
4	946	19	0.455316724714
4	947	19	0.405300425718
4	948	19	0
4	986	20	0.95157362718
4	987	20	0.891260444535
4	988	20	0.56308092895
4	989	20	0.319677029883
4	990	20	0.232807898694
4	991	20	0.106115375149
4	992	20	15.27831060494
4	993	20	0
4	1029	21	16.110243663818
4	1030	21	21
4	1031	21	0
4	1073	22	0.753037271162
4	1074	22	0.423693450897
4	1075	22	0.319119444879
4	1076	22	0.225664931597
4	1077	22	0.104805117227
4	1078	22	17.059955277403
4	1079	22	0
4	1115	23	0.848738276465
4	1116	23	0.757755907507
4	1117	23	0.015763789126
4	1118	23	0
4	1165	24	0.738505518722
4	1166	24	0.604013415355
4	1167	24	0.564447513863
4	1168	24	0.560708419779
4	1169	24	0.245025875358
4	1170	24	18.868045681929
4	1171	24	0
4	1215	25	0.718582102848
4	1216	25	0.712110741919
4	1217	25	0.405944496666
4	1218	25	0.165750315358
4	1219	25	0.103556754364
4	1220	25	19.639017890989
4	1221	25	0
4	1255	26	0.913190812856
4	1256	26	0.685871513805
4	1257	26	0.286437120307
4	1258	26	0
4	1309	27	0.618850253536
4	1310	27	0.498514456231
4	1311	27	0.363665542304
4	1312	27	0
4	1347	28	0.660769806197
4	1348	28	0.56588654813
4	1349	28	0.373598633816
4	1350	28	0.368600963153
4	1351	28	0
4	1391	29	0.982928935777
4	1392	29	0.852682789393
4	1393	29	0.626611680211
4	1394	29	0
4	1433	30	0.698681174936
4	1434	30	0.271968517441
4	1435	30	0.094468131744
4	1436	30	0
4	1477	31	0.896167273165
4	1478	31	0.821414614402
4	1479	31	0.710580448592
4	1480	31	0.277427712417
4	1481	31	0.044805055732
4	1482	31	25.519468675625
4	1483	31	0
4	1527	32	0.996261356998
4	1528	32	0.407365301513
4	1529	32	0.359380597626
4	1530	32	0.213335064578
4	1531	32	0.208135515539
4	1532	32	26.430364976615
4	1533	32	0
4	1587	33	0.959465359949
4	1588	33	0.865730064754
4	1589	33	0.657888937438
4	1590	33	0.616617338717
4	1591	33	0.287002104085
4	1592	33	0.2619955861
4	1593	33	0.03730348619
4	1594	33	0
4	1641	34	0.93644749954
4	1642	34	0.812040115724
4	1643	34	0.645364467595
4	1644	34	0.511456349423
4	1645	34	0
4	1701	35	0.94732915974
4	1702	35	0.898289541212
4	1703	35	0.88086782456
4	1704	35	0.60420453133
4	1705	35	0.428561515586
4	1706	35	0.359457598844
4	1707	35	0.304352011436
4	1708	35	0.283214576615
4	1709	35	0
4	1749	36	1.270192003658
4	1750	36	1.266878784774
4	1751	36	1.104650580328
4	1752	36	0.574138877224
4	1753	36	0
4	1785	37	0.742944658111
4	1786	37	0.324633343586
4	1787	37	0.203177485862
4	1788	37	0
4	1819	38	0.606737350767
4	1820	38	0.285645598153
4	1821	38	0.039069505547
4	1822	38	0
4	1857	39	0.969718844789
4	1858	39	0.59169850517
4	1859	39	0.589033456204
4	1860	39	0
4	1897	40	0.857101990051
4	1898	40	0.726942521579
4	1899	40	0.446807382187
4	1900	40	0.309218686495
4	1901	40	0.308407422231
4	1902	40	0.10437000464
4	1903	40	0.074924997177
4	1904	40	0
4	1945	41	0.963123463179
4	1946	41	0.921016805538
4	1947	41	0.777807741939
4	1948	41	0.757214069195
4	1949	41	0.652998304978
4	1950	41	0.484571044411
4	1951	41	35.315458495267
4	1952	41	0
4	2001	42	0.762782843414
4	2002	42	0.288705327291
4	2003	42	0.216846546266
4	2004	42	0.163992453439
4	2005	42	0.13556735116
4	2006	42	0.056866868935
4	2007	42	0.045885394425
4	2008	42	0
4	2057	43	0.434913438624
4	2058	43	0.41834098404
4	2059	43	0.36063844197
4	2060	43	0.134362688449
4	2061	43	0
4	2113	44	0.801769532314
4	2114	44	0.447845567672
4	2115	44	0.427538750884
4	2116	44	0.364506745141
4	2117	44	0.336313168258
4	2118	44	0.157047327254
4	2119	44	0.034359509336
4	2120	44	0
4	2171	45	0.804411231786
4	2172	45	0.737730564111
4	2173	45	0.624096467363
4	2174	45	0.273353538358
4	2175	45	0.034550864239
4	2176	45	39.076236935376
4	2177	45	0
4	2227	46	0.734068305497
4	2228	46	0.694775928318
4	2229	46	0.680292106295
4	2230	46	0.503139977089
4	2231	46	0.474489372813
4	2232	46	0.172397052568
4	2233	46	39.856454441866
4	2234	46	0
4	2283	47	0.9212183557
4	2284	47	0.786228160969
4	2285	47	0.357608220883
4	2286	47	0.22862652265
4	2287	47	0.2214259567
4	2288	47	40.634334952729
4	2289	47	0
4	2345	48	0.915256272911
4	2346	48	0.772579416351
4	2347	48	0.56292159536
4	2348	48	0.535330948974
4	2349	48	0.4355924824
4	2350	48	0.39415544595
4	2351	48	0.221167824064
4	2352	48	0.064200420146
4	2353	48	41.545654147005
4	2354	48	0
4	2397	49	1.044840925684
4	2398	49	0.922744356684
4	2399	49	0.495260018601
4	2400	49	0.237667623586
4	2401	49	0.126535840954
4	2402	49	42.358441835051
4	2403	49	0
4	2453	50	0.892283101965
4	2454	50	0.718689105561
4	2455	50	0.466760871436
4	2456	50	0.203856451819
4	2457	50	0.130139863897
4	2458	50	0.077121243616
4	2459	50	43.189556276345
4	2460	50	0
4	2497	51	0.954572154643
4	2498	51	0.775771874107
4	2499	51	0.385776491738
4	2500	51	0.263564979481
4	2501	51	0.092077958958
4	2502	51	43.550966947934
4	2503	51	0
4	2539	52	0.7482640966
4	2540	52	0.713956371125
4	2541	52	0.234920413247
4	2542	52	0.034110178471
4	2543	52	0
4	2583	53	0.437754247006
4	2584	53	0.05960841612
4	2585	53	45.339218404915
4	2586	53	0
4	2627	54	0.942254654784
4	2628	54	0.842812797515
4	2629	54	0.801842344086
4	2630	54	0.42851425005
4	2631	54	0.407527700584
4	2632	54	0.219627303411
4	2633	54	0.198893136083
4	2634	54	0
4	2707	55	0.791634298629
4	2708	55	0.773532804599
4	2709	55	0.720545817072
4	2710	55	0.529921309419
4	2711	55	0.526775484664
4	2712	55	0.414773809998
4	2713	55	0.204905376813
4	2714	55	0
4	2751	56	0.910020931856
4	2752	56	0.717302392598
4	2753	56	0.623518127143
4	2754	56	0
4	2793	57	0.695462127953
4	2794	57	0.491118458471
4	2795	57	0.477611627096
4	2796	57	0.402599238472
4	2797	57	0.078867025188
4	2798	57	0.064256693757
4	2799	57	0.008995655171
4	2800	57	0
4	2843	58	0.79175499294
4	2844	58	0.735265650548
4	2845	58	0.534278988736
4	2846	58	0.388603474129
4	2847	58	0.278243049801
4	2848	58	0.140540272192
4	2849	58	50.16483523419
4	2850	58	0
4	2887	59	0.978744333165
4	2888	59	0.710689140769
4	2889	59	0.592157657182
4	2890	59	0.501909897484
4	2891	59	0
4	2925	60	0.983944668385
4	2926	60	0.930988213717
4	2927	60	0.845286692881
4	2928	60	0.785811987299
4	2929	60	0
4	2963	61	0.939208828033
4	2964	61	0.484467394695
4	2965	61	0.462078486466
4	2966	61	0.327601906058
4	2967	61	0
4	3015	62	0.883359069418
4	3016	62	0.830195759614
4	3017	62	0.596108613611
4	3018	62	0.571942334358
4	3019	62	0.14500185545
4	3020	62	0.049698691255
4	3021	62	54.039246917992
4	3022	62	0
4	3073	63	0.97126643333
4	3074	63	0.916955274994
4	3075	63	0.599483829056
4	3076	63	0.165238652785
4	3077	63	0.003140023349
4	3078	63	54.983191516296
4	3079	63	0
4	3117	64	0.844095583087
4	3118	64	0.440178682443
4	3119	64	0.435193063297
4	3120	64	0.194681594355
4	3121	64	0
4	3159	65	0.506492784838
4	3160	65	0.491791509354
4	3161	65	0.422504843855
4	3162	65	0.199613197512
4	3163	65	0.091532657992
4	3164	65	56.948566025067
4	3165	65	0
4	3209	66	0.996464724064
4	3210	66	0.975385498082
4	3211	66	0.87887045505
4	3212	66	0.863832093217
4	3213	66	0.176707414721
4	3214	66	0.116836814133
4	3215	66	57.866065779083
4	3216	66	0
4	3255	67	0.662694792654
4	3256	67	58.842674697125
4	3257	67	66.748813848391
4	3258	67	0
4	3299	68	0.918813130474
4	3300	68	0.777823266199
4	3301	68	0.531205520756
4	3302	68	0.525829396854
4	3303	68	0.248093942081
4	3304	68	0.166948673308
4	3305	68	59.618041036818
4	3306	68	0
4	3351	69	0.483963692822
4	3352	69	0.043897828733
4	3353	69	60.541729868143
4	3354	69	0
4	3391	70	0.815689161882
4	3392	70	0.567749545759
4	3393	70	0.521886111432
4	3394	70	0.295794671769
4	3395	70	0.21217633998
4	3396	70	0.053201772767
4	3397	70	61.497953748842
4	3398	70	0
4	3457	71	0.989523169556
4	3458	71	0.957426348084
4	3459	71	0.890974223368
4	3460	71	0.884833868766
4	3461	71	0.683231160669
4	3462	71	0.435423859193
4	3463	71	0.272105321423
4	3464	71	0.253354243901
4	3465	71	62.405950957294
4	3466	71	0
4	3515	72	1.113638042685
4	3516	72	1.080278891061
4	3517	72	0.996383026367
4	3518	72	0.523124973598
4	3519	72	0.49853246022
4	3520	72	0.326389518717
4	3521	72	0.17148616113
4	3522	72	0
4	3559	73	0.913908113308
4	3560	73	0.913366738392
4	3561	73	0.861849765124
4	3562	73	0.740507283275
4	3563	73	0.557052923893
4	3564	73	0.379347181428
4	3565	73	64.188697081118
4	3566	73	0
4	3611	74	0.721217415376
4	3612	74	0.482754260532
4	3613	74	0.340162964706
4	3614	74	0.334256602473
4	3615	74	0.021325292333
4	3616	74	65.185964165432
4	3617	74	0
4	3657	75	0.904633257872
4	3658	75	0.757859264467
4	3659	75	0.521053717198
4	3660	75	0.501996820624
4	3661	75	0.378386345196
4	3662	75	0.326694495452
4	3663	75	0.221065697308
4	3664	75	0.066142950037
4	3665	75	66.165535189127
4	3666	75	65.970514802296
4	3667	75	65.606551018439
4	3668	75	65.185486758281
4	3669	75	65.059019439002
4	3670	75	64.306633982101
4	3671	75	64.281356254816
4	3672	75	64.047981549506
4	3673	75	74.358504781214
4	3674	75	74.150872921081
4	3675	75	74.035769081704
4	3676	75	74.024092147885
4	3677	75	73.960420919717
4	3678	75	73.863700498727
4	3679	75	73.733811229077
4	3680	75	73.420032005552
4	3681	75	73.269497182889
4	3682	75	73.169722781086
4	3683	75	72.808048928231
4	3684	75	72.803963810551
4	3685	75	72.7121141831
4	3686	75	72.410957331373
4	3687	75	72.002894479785
4	3688	75	71.874552645249
4	3689	75	71.55175223027
4	3690	75	71.248445035472
4	3691	75	71.044158660602
4	3692	75	71.013212724502
4	3693	75	70.434328628905
4	3694	75	70.312512144268
4	3695	75	70.263702446121
4	3696	75	70.234646840663
4	3697	75	70.04237065285
4	3698	75	69.944659242988
4	3699	75	69.478876568145
4	3700	75	69.288977651446
4	3701	75	69.268065406291
4	3702	75	69.255642348198
4	3703	75	68.555599611307
4	3704	75	68.47980721845
4	3705	75	68.389386806405
4	3706	75	68.310764294944
4	3707	75	68.302927663661
4	3708	75	68.101753462628
4	3709	75	68.080226440997
4	3710	75	67.868661158327
4	3711	75	67.821800854572
4	3712	75	67.620197005488
4	3713	75	67.585014296403
4	3714	75	66.512994226354
4	3715	75	65.915556247984
4	3716	75	65.895349292922
4	3717	75	65.180631618453
4	3718	75	65.038114899786
4	3719	75	65.026649514501
4	3720	75	64.840953815121
4	3721	75	64.572104760691
4	3722	75	64.546493407629
4	3723	75	64.457409515245
4	3724	75	64.387174297369
4	3725	75	64.256045040496
4	3726	75	64.179504850724
4	3727	75	63.754657411324
4	3728	75	63.588088708111
4	3729	75	63.420869201717
4	3730	75	63.278619614274
4	3731	75	62.781503142879
4	3732	75	62.716435059773
4	3733	75	62.639723016953
4	3734	75	62.270257486753
4	3735	75	61.902000992456
4	3736	75	61.809654813247
4	3737	75	61.641038206817
4	3738	75	61.578093874646
4	3739	75	61.312342299896
4	3740	75	61.255138105394
4	3741	75	61.083459511828
4	3742	75	60.98259075051
4	3743	75	60.803272576353
4	3744	75	60.599540830349
4	3745	75	59.989084498972
4	3746	75	59.748636785523
4	3747	75	59.45727307381
4	3748	75	59.351128574487
4	3749	75	59.126072171118
4	3750	75	59.050924402637
4	3751	75	58.62395831264
4	3752	75	58.36557645888
4	3753	75	58.2264165667
4	3754	75	58.174005118365
4	3755	75	58.073542958713
4	3756	75	57.963263760686
4	3757	75	57.776783184605
4	3758	75	57.772907228335
4	3759	75	57.645881685209
4	3760	75	57.394072981756
4	3761	75	57.201597970602
4	3762	75	57.172483174912
4	3763	75	57.150773755213
4	3764	75	57.079928928764
4	3765	75	56.992523326009
4	3766	75	56.813777510348
4	3767	75	56.806936826676
4	3768	75	56.5951349496
4	3769	75	56.51770893117
4	3770	75	56.404786830946
4	3771	75	56.374328105895
4	3772	75	56.282693529103
4	3773	75	56.262229406132
4	3774	75	56.147737095846
4	3775	75	55.320175143744
4	3776	75	54.816318717727
4	3777	75	54.783944700385
4	3778	75	54.313909242435
4	3779	75	54.306252659858
4	3780	75	54.270787544829
4	3781	75	54.079594260045
4	3782	75	53.702808482728
4	3783	75	53.596807907101
4	3784	75	53.428431714755
4	3785	75	53.398273512716
4	3786	75	53.391516155606
4	3787	75	53.377181078743
4	3788	75	53.138093365487
4	3789	75	53.029121939858
4	3790	75	53.018739429421
4	3791	75	52.61618488218
4	3792	75	52.612831328982
4	3793	75	52.225515881484
4	3794	75	51.648593531064
4	3795	75	51.637419520486
4	3796	75	51.554623735951
4	3797	75	51.430104267155
4	3798	75	51.345372846884
4	3799	75	50.768463989203
4	3800	75	50.586871183738
4	3801	75	50.392574752119
4	3802	75	50.338241138051
4	3803	75	49.362414560452
4	3804	75	49.10045748618
4	3805	75	48.9388614755
4	3806	75	48.891756560816
4	3807	75	48.850550151119
4	3808	75	48.801178297359
4	3809	75	48.632582542276
4	3810	75	48.363513055629
4	3811	75	48.311910502841
4	3812	75	48.083682922269
4	3813	75	47.949860177531
4	3814	75	47.7114885568
4	3815	75	46.962149634035
4	3816	75	46.841233390368
4	3817	75	46.687409430149
4	3818	75	46.233441426992
4	3819	75	46.111674844245
4	3820	75	45.637891210078
4	3821	75	45.560753671269
4	3822	75	45.464025993771
4	3823	75	45.256455978673
4	3824	75	45.177941373035
4	3825	75	44.822312705668
4	3826	75	44.758397774693
4	3827	75	44.438453886325
4	3828	75	43.827816952406
4	3829	75	43.775688926531
4	3830	75	43.513187327938
4	3831	75	43.454597036241
4	3832	75	43.379311165937
4	3833	75	42.747892057654
4	3834	75	42.623326195701
4	3835	75	42.446569064494
4	3836	75	42.171633073734
4	3837	75	42.106793251037
4	3838	75	42.078464844078
4	3839	75	42.04001255591
4	3840	75	41.796212686874
4	3841	75	41.755720934134
4	3842	75	41.709872069093
4	3843	75	41.678576915016
4	3844	75	41.6425220551
4	3845	75	41.615853930445
4	3846	75	41.527962852346
4	3847	75	41.27187798155
4	3848	75	40.997009378666
4	3849	75	40.977575842993
4	3850	75	40.509477450862
4	3851	75	40.500139902133
4	3852	75	39.846440621968
4	3853	75	39.538874879073
4	3854	75	39.472692902838
4	3855	75	39.296116793847
4	3856	75	39.25602835483
4	3857	75	39.12306680492
4	3858	75	38.949353658627
4	3859	75	38.639551322796
4	3860	75	38.453028951742
4	3861	75	38.370482978397
4	3862	75	38.321199813954
4	3863	75	38.268484391387
4	3864	75	37.84630663651
4	3865	75	37.710746236099
4	3866	75	37.143418197424
4	3867	75	36.728665904804
4	3868	75	36.685446661485
4	3869	75	36.493044276167
4	3870	75	36.40773711376
4	3871	75	36.011187332839
4	3872	75	35.209597401864
4	3873	75	35.146797822251
4	3874	75	35.054839558696
4	3875	75	34.709512882748
4	3876	75	34.313134814526
4	3877	75	34.228936154916
4	3878	75	33.580943561536
4	3879	75	33.283457610668
4	3880	75	32.98493117783
4	3881	75	32.726301606071
4	3882	75	32.723492287823
4	3883	75	32.721193637781
4	3884	75	32.568708900938
4	3885	75	32.496060457158
4	3886	75	32.464273821227
4	3887	75	32.035396728324
4	3888	75	31.926265185371
4	3889	75	31.763261519192
4	3890	75	31.369250006074
4	3891	75	31.310069631424
4	3892	75	31.238277367749
4	3893	75	31.104416793352
4	3894	75	30.955700154997
4	3895	75	30.71780090473
4	3896	75	30.622217307228
4	3897	75	30.582246199644
4	3898	75	30.439844586519
4	3899	75	30.421777137703
4	3900	75	30.410071557914
4	3901	75	30.194286176214
4	3902	75	30.148001981823
4	3903	75	29.772178294981
4	3904	75	29.712113278924
4	3905	75	29.618491988277
4	3906	75	29.173275190389
4	3907	75	29.16414758049
4	3908	75	28.842464010673
4	3909	75	28.826448239484
4	3910	75	28.699661814186
4	3911	75	28.626371555819
4	3912	75	28.45403805746
4	3913	75	27.813076291538
4	3914	75	27.782019174437
4	3915	75	27.553260098613
4	3916	75	27.474448584224
4	3917	75	26.847882686315
4	3918	75	26.830559287426
4	3919	75	26.707838445478
4	3920	75	26.385572045654
4	3921	75	26.283731548281
4	3922	75	26.264107643755
4	3923	75	25.795333715595
4	3924	75	25.715917525591
4	3925	75	25.433160859683
4	3926	75	25.141848817368
4	3927	75	24.502197822014
4	3928	75	24.338994109221
4	3929	75	24.31848373062
4	3930	75	23.71169521614
4	3931	75	22.734995418071
4	3932	75	22.624654695553
4	3933	75	22.506038376088
4	3934	75	22.446172699604
4	3935	75	22.186005214112
4	3936	75	22.179230843064
4	3937	75	22.105889812305
4	3938	75	22.080375097546
4	3939	75	21.992559700428
4	3940	75	21.904328738282
4	3941	75	21.901036081485
4	3942	75	21.749243126635
4	3943	75	21.646657728269
4	3944	75	21.492965212791
4	3945	75	21.264909437407
4	3946	75	20.683725516676
4	3947	75	20.676998732492
4	3948	75	20.529214728504
4	3949	75	20.385285748966
4	3950	75	20.371185359294
4	3951	75	20.213873540916
4	3952	75	20.15548432657
4	3953	75	20.127389183179
4	3954	75	20.032995565625
4	3955	75	20.008452564162
4	3956	75	19.208939868818
4	3957	75	19.199592888471
4	3958	75	19.094386729319
4	3959	75	19.058811377748
4	3960	75	18.70262444277
4	3961	75	18.567835753926
4	3962	75	17.658270983554
4	3963	75	17.13514279707
4	3964	75	17.023477439217
4	3965	75	16.77825099677
4	3966	75	16.671071237702
4	3967	75	15.976942221595
4	3968	75	15.857707843316
4	3969	75	15.520264185564
4	3970	75	15.424088540703
4	3971	75	14.729517399522
4	3972	75	14.659163922436
4	3973	75	14.633356221799
4	3974	75	13.667412172205
4	3975	75	13.655386498379
4	3976	75	13.392993882162
4	3977	75	13.193534097329
4	3978	75	13.129923188291
4	3979	75	13.036147557165
4	3980	75	12.808188475832
4	3981	75	12.770475530982
4	3982	75	12.630266429117
4	3983	75	12.55765066108
4	3984	75	12.470917690005
4	3985	75	12.416623696719
4	3986	75	12.148443351801
4	3987	75	11.576958282238
4	3988	75	11.491175915084
4	3989	75	11.213304213694
4	3990	75	11.181075697929
4	3991	75	11.152797075382
4	3992	75	10.115771190775
4	3993	75	10.087622159689
4	3994	75	9.90229443963
4	3995	75	9.450799081479
4	3996	75	9.446901222889
4	3997	75	9.288579403968
4	3998	75	8.510397385886
4	3999	75	8.446629176203
4	4000	75	7.744816466002
4	4001	75	7.670493315036
4	4002	75	7.577120446323
4	4003	75	7.428244794043
4	4004	75	7.231739125499
4	4005	75	7.151780071004
4	4006	75	6.755217554949
4	4007	75	6.718294380368
4	4008	75	6.708311259883
4	4009	75	6.24480604737
4	4010	75	6.101879209894
4	4011	75	6.00405752777
4	4012	75	5.853015164218
4	4013	75	5.273991640814
4	4014	75	5.048439554099
4	4015	75	4.891528214715
4	4016	75	4.503518572739
4	4017	75	4.410259167451
4	4018	75	3.899763868742
4	4019	75	3.898054265013
4	4020	75	3.832612188748
4	4021	75	3.138733420993
4	4022	75	2.544091753097
4	4023	75	2.185157130298
4	4024	75	1.692628276417
4	4025	75	1.356571796401
4	4026	75	1.275289223052
4	4027	75	0.771311484283
4	4028	75	0.67470087943
4	4029	75	0.346030232389
4	4030	75	0
4	4433	76	0.870884545443
4	4434	76	0.446653654074
4	4435	76	64.941004674355
4	4436	76	0
4	4477	77	0.658361917149
4	4478	77	0.632586187941
4	4479	77	0.118999662201
4	4480	77	0.110214215376
4	4481	77	0
4	4517	78	0.605610723105
4	4518	78	0.440145538384
4	4519	78	0.405163486365
4	4520	78	0.231612457777
4	4521	78	0
4	4573	79	0.79676587635
4	4574	79	0.761840317054
4	4575	79	0.730305906488
4	4576	79	0.513885529591
4	4577	79	0.317437892709
4	4578	79	0.260593944003
4	4579	79	67.440222317738
4	4580	79	0
4	4631	80	0.839037872322
4	4632	80	0.79828079588
4	4633	80	0.528955338173
4	4634	80	0.487414680931
4	4635	80	0.264110966219
4	4636	80	0.113557035811
4	4637	80	0.036258199402
4	4638	80	0
4	4665	81	0.854344058427
4	4666	81	0.644905607329
4	4667	81	69.378539349718
4	4668	81	0
4	4719	82	0.942109842739
4	4720	82	0.724060725447
4	4721	82	0.204126076378
4	4722	82	0.090785684408
4	4723	82	0
4	4765	83	0.999035423879
4	4766	83	0.877082989307
4	4767	83	0.69774582199
4	4768	83	0
4	4797	84	0.993115553744
4	4798	84	0.890026043743
4	4799	84	0.788773250327
4	4800	84	0
4	4827	85	0.953684529481
4	4828	85	0.750692737807
4	4829	85	0.415305791209
4	4830	85	0.249253661856
4	4831	85	0
4	4881	86	0.620254151315
4	4882	86	0.538510620468
4	4883	86	0.525573899439
4	4884	86	0.521188423301
4	4885	86	0.465799978235
4	4886	86	0.352574067896
4	4887	86	74.230387559629
4	4888	86	0
4	4929	87	0.942857436577
4	4930	87	0.917898818125
4	4931	87	0.839255360727
4	4932	87	0.661084600349
4	4933	87	0.387473796074
4	4934	87	0.010500873233
4	4935	87	75.210657497945
4	4936	87	0
4	4973	88	0.829128251772
4	4974	88	0.384371688622
4	4975	88	0.288656374408
4	4976	88	0.241123200187
4	4977	88	0.209134357516
4	4978	88	75.702596596353
4	4979	88	0
4	5023	89	0.919505132726
4	5024	89	0.523314073501
4	5025	89	0.426918231589
4	5026	89	0.389887020892
4	5027	89	0
4	5065	90	0.997262362981
4	5066	90	0.985198758225
4	5067	90	0.921951337057
4	5068	90	0.794741242832
4	5069	90	0.770119151849
4	5070	90	0.639428499904
4	5071	90	77.70071644622
4	5072	90	0
4	5137	91	0.857400345973
4	5138	91	0.734806892237
4	5139	91	0.722672032202
4	5140	91	0.50009926988
4	5141	91	0.398044990328
4	5142	91	0.194165952714
4	5143	91	0.100244346288
4	5144	91	0.085721134667
4	5145	91	78.480547264202
4	5146	91	78.45228112149
4	5147	91	78.243924990654
4	5148	91	78.175594157249
4	5149	91	78.135124069536
4	5150	91	78.033684044885
4	5151	91	77.872724564925
4	5152	91	77.871783256827
4	5153	91	0
4	5207	92	0.889364153547
4	5208	92	0.677435164905
4	5209	92	0.454612217612
4	5210	92	0.376275309636
4	5211	92	0.35286130177
4	5212	92	78.840114955581
4	5213	92	0
4	5263	93	0.994530434593
4	5264	93	0.744228643203
4	5265	93	0.72097030985
4	5266	93	0.569599446405
4	5267	93	0.350469472355
4	5268	93	79.613588127187
4	5269	93	0
4	5305	94	0.910306097482
4	5306	94	0.466446993127
4	5307	94	0.317902243187
4	5308	94	0
4	5347	95	0.999661790518
4	5348	95	0.957377555522
4	5349	95	0.869606720114
4	5350	95	0.723582316063
4	5351	95	0.429059743554
4	5352	95	0.174089453044
4	5353	95	0.080658807752
4	5354	95	0.030230872465
4	5355	95	81.3702863965
4	5356	95	0
4	5421	96	1.013438864458
4	5422	96	0.859312652298
4	5423	96	0.845624877221
4	5424	96	0.701414396337
4	5425	96	0.666038255113
4	5426	96	0.181770925824
4	5427	96	82.256705565804
4	5428	96	0
4	5483	97	0.726626929209
4	5484	97	0.654807792644
4	5485	97	0.640205283876
4	5486	97	0.336030102349
4	5487	97	0.301065702342
4	5488	97	0.214845336899
4	5489	97	0.194744232152
4	5490	97	0.095040965769
4	5491	97	82.974500683945
4	5492	97	82.521753968773
4	5493	97	82.293832376066
4	5494	97	82.175307570576
4	5495	97	82.05603169171
4	5496	97	81.287430375061
4	5497	97	80.861530495847
4	5498	97	80.625653909118
4	5499	97	0
4	5539	98	0.685293367054
4	5540	98	0.450549821479
4	5541	98	0.165723618352
4	5542	98	0
4	5603	99	0.992375404219
4	5604	99	0.901692720553
4	5605	99	0.762637564356
4	5606	99	0.668191814627
4	5607	99	0.577393525277
4	5608	99	0.440369509689
4	5609	99	0.37540614876
4	5610	99	0.354890296781
4	5611	99	0
4	5655	100	1.20626316592
4	5656	100	1.171429321699
4	5657	100	1.118355330144
4	5658	100	0.412107050046
4	5659	100	0
4	5695	101	0.65937089134
4	5696	101	0.587920532286
4	5697	101	0.225898329994
4	5698	101	0.118461582577
4	5699	101	0
4	5739	102	0.566749317994
4	5740	102	0.566472455473
4	5741	102	0.546752555433
4	5742	102	0.489832518635
4	5743	102	0.413218905218
4	5744	102	0.241985673737
4	5745	102	0.035601533154
4	5746	102	0
4	5781	103	0.912917919929
4	5782	103	0.795309157594
4	5783	103	0.713383725578
4	5784	103	0.288197611589
4	5785	103	0
4	5821	104	0.325258011643
4	5822	104	0.093918153703
4	5823	104	0.041367071715
4	5824	104	0
4	5867	105	0.886552663179
4	5868	105	0.850236819647
4	5869	105	0.338078036693
4	5870	105	0.292052883062
4	5871	105	0
4	5915	106	0.990882654446
4	5916	106	0.253188259349
4	5917	106	0.21917684159
4	5918	106	0.146638614349
4	5919	106	0.089888593841
4	5920	106	0.074218633622
4	5921	106	0.066769415161
4	5922	106	0
4	5965	107	0.95620954846
4	5966	107	0.85172369979
4	5967	107	0.683756999513
4	5968	107	0.627136633715
4	5969	107	0.560297550723
4	5970	107	0.012692891668
4	5971	107	90.448081627031
4	5972	107	0
4	6021	108	0.473385920884
4	6022	108	0.415743287302
4	6023	108	0.36490235476
4	6024	108	0.359889437249
4	6025	108	0.351726537179
4	6026	108	0.350227268289
4	6027	108	0.146060784478
4	6028	108	0
4	6065	109	0.90977970476
4	6066	109	0.578300800626
4	6067	109	92.232514650204
4	6068	109	0
4	6125	110	0.961021372848
4	6126	110	0.867646937356
4	6127	110	0.646981876816
4	6128	110	0.578886238509
4	6129	110	0.555033264514
4	6130	110	0.507271552624
4	6131	110	0.466840165374
4	6132	110	0.277836567252
4	6133	110	92.607420978672
4	6134	110	0
4	6197	111	1.004355423451
4	6198	111	0.973096894951
4	6199	111	0.972987670959
4	6200	111	0.936192882233
4	6201	111	0.825376053263
4	6202	111	0.739724447501
4	6203	111	0.555348595845
4	6204	111	0.304732977045
4	6205	111	93.391556938941
4	6206	111	93.114961097634
4	6207	111	93.095576546719
4	6208	111	92.926798852201
4	6209	111	92.766288455049
4	6210	111	92.071781359193
4	6211	111	91.626798427748
4	6212	111	91.472783055839
4	6213	111	0
4	6269	112	1.270522613237
4	6270	112	1.235855108991
4	6271	112	1.049720397666
4	6272	112	1.025137240036
4	6273	112	0.807414005425
4	6274	112	0.604488654572
4	6275	112	0.270291339533
4	6276	112	0
4	6319	113	0.988905230478
4	6320	113	0.866891072223
4	6321	113	0.52686628637
4	6322	113	0.349125480848
4	6323	113	0.084807459612
4	6324	113	93.353968356174
4	6325	113	0
4	6367	114	0.913637615323
4	6368	114	0.67086550271
4	6369	114	0.40353329496
4	6370	114	0
4	6411	115	0.991915059429
4	6412	115	0.984982118917
4	6413	115	0.737092687161
4	6414	115	0.698131467857
4	6415	115	0.325454271098
4	6416	115	0.236510580107
4	6417	115	0.181797607657
4	6418	115	0
4	6463	116	0.668213063704
4	6464	116	0.645746127574
4	6465	116	0.462381520115
4	6466	116	0.430394399341
4	6467	116	0.371888784756
4	6468	116	0.312499373
4	6469	116	96.332845827448
4	6470	116	0
4	6525	117	0.898906909969
4	6526	117	0.809927216172
4	6527	117	0.768886652506
4	6528	117	0.522070647158
4	6529	117	0.345027278228
4	6530	117	0.226592317432
4	6531	117	0.113085800666
4	6532	117	0.02465576628
4	6533	117	97.311869460328
4	6534	117	97.061347955346
4	6535	117	96.693401398331
4	6536	117	96.28821963491
4	6537	117	96.146236049465
4	6538	117	96.109728329088
4	6539	117	96.083291587165
4	6540	117	95.781326896043
4	6541	117	0
4	6587	118	0.531703738996
4	6588	118	0.489620358349
4	6589	118	0.421146675777
4	6590	118	0.248734350318
4	6591	118	0.193293662615
4	6592	118	96.380929596938
4	6593	118	0
4	6629	119	0.962540909942
4	6630	119	0.878060220061
4	6631	119	0.214646744519
4	6632	119	0
4	6673	120	0.812745021179
4	6674	120	0.693769770001
4	6675	120	0.525975113415
4	6676	120	0.508192240946
4	6677	120	0.370289656562
4	6678	120	97.570960229177
4	6679	120	0
4	6725	121	0.967126163694
4	6726	121	0.864484487447
4	6727	121	0.789840541776
4	6728	121	0.682032640069
4	6729	121	0.443047013395
4	6730	121	0.357445983303
4	6731	121	0.309932874717
4	6732	121	0.297688988292
4	6733	121	98.518494367344
4	6734	121	0
4	6787	122	1.126304367995
4	6788	122	0.855939950782
4	6789	122	0.303244662664
4	6790	122	0.291532892999
4	6791	122	0.153957938702
4	6792	122	99.51613772096
4	6793	122	0
4	6829	123	0.366636712739
4	6830	123	0.08339801664
4	6831	123	100.22657890456
4	6832	123	0
4	6867	124	0.869207007365
4	6868	124	0.705113493781
4	6869	124	0.559430698699
4	6870	124	0.393102108158
4	6871	124	0.231325370435
4	6872	124	101.13732834046
4	6873	124	0
4	6919	125	0.880592566968
4	6920	125	0.872728516982
4	6921	125	0.208016091701
4	6922	125	0.127001445865
4	6923	125	0.105988679285
4	6924	125	101.87546866765
4	6925	125	0
4	6969	126	0.930289581185
4	6970	126	0.647635618128
4	6971	126	0.614911735426
4	6972	126	0
4	7011	127	0.622505186447
4	7012	127	103.83780967261
4	7013	127	51.995340608734
4	7014	127	0
4	7043	128	0.863498719703
4	7044	128	0.618622112507
4	7045	128	104.75488716408
4	7046	128	0
4	7091	129	0.884110195459
4	7092	129	0.767868734837
4	7093	129	0.637060022333
4	7094	129	0.356664632933
4	7095	129	0
4	7141	130	0.916210943845
4	7142	130	0.793354888122
4	7143	130	0.764391661225
4	7144	130	0.688285719206
4	7145	130	0.556504009838
4	7146	130	0.421363546686
4	7147	130	0.406343312513
4	7148	130	0.392004868902
4	7149	130	106.60766094408
4	7150	130	54.559336519303
4	7151	130	54.479746840373
4	7152	130	54.451097099616
4	7153	130	54.347451529995
4	7154	130	53.936641033222
4	7155	130	53.841241483033
4	7156	130	53.685007725035
4	7157	130	53.529100719269
4	7158	130	53.300777614565
4	7159	130	53.233089388002
4	7160	130	52.54288736213
4	7161	130	52.471544111595
4	7162	130	51.997896900994
4	7163	130	51.87963634388
4	7164	130	51.705713271713
4	7165	130	51.623929765864
4	7166	130	51.507871848267
4	7167	130	51.491957817248
4	7168	130	51.402291955926
4	7169	130	50.918481677094
4	7170	130	50.905876988243
4	7171	130	50.777132027073
4	7172	130	50.663030829458
4	7173	130	50.206352022574
4	7174	130	50.058301584291
4	7175	130	50.057680712929
4	7176	130	49.96773803934
4	7177	130	49.840517348467
4	7178	130	49.74547546071
4	7179	130	49.744434834149
4	7180	130	48.966705889595
4	7181	130	48.928314309205
4	7182	130	48.84881849322
4	7183	130	48.620713598227
4	7184	130	48.546717762277
4	7185	130	48.416835616918
4	7186	130	48.216323135252
4	7187	130	48.071802687745
4	7188	130	47.544976408556
4	7189	130	47.51633175426
4	7190	130	47.428783863037
4	7191	130	47.344650328557
4	7192	130	47.133362129721
4	7193	130	46.788483752627
4	7194	130	46.701743858547
4	7195	130	46.582850655207
4	7196	130	46.327250229374
4	7197	130	45.772299305058
4	7198	130	45.549325934244
4	7199	130	45.487286709591
4	7200	130	44.739457013983
4	7201	130	44.715365360429
4	7202	130	44.47573508286
4	7203	130	44.446208706214
4	7204	130	44.385817705516
4	7205	130	44.238190357006
4	7206	130	44.198644003418
4	7207	130	43.561067168963
4	7208	130	42.99576237485
4	7209	130	42.175775516316
4	7210	130	41.944780609602
4	7211	130	41.486729165622
4	7212	130	41.431431628802
4	7213	130	41.411121874686
4	7214	130	40.572068150662
4	7215	130	39.888240850125
4	7216	130	39.824955371887
4	7217	130	39.721521986473
4	7218	130	39.695079666507
4	7219	130	39.610541708894
4	7220	130	39.360351976762
4	7221	130	39.264293614
4	7222	130	39.259849883596
4	7223	130	39.146807556627
4	7224	130	38.930097918968
4	7225	130	38.439436750667
4	7226	130	38.285464363504
4	7227	130	37.986418139878
4	7228	130	37.980336541125
4	7229	130	37.815422196489
4	7230	130	37.713370366417
4	7231	130	37.526933018304
4	7232	130	37.325478480626
4	7233	130	37.303672107902
4	7234	130	37.074456500889
4	7235	130	36.670723748904
4	7236	130	36.117103737366
4	7237	130	36.026246221954
4	7238	130	35.058728732142
4	7239	130	34.985275098642
4	7240	130	34.967440882188
4	7241	130	34.903241350609
4	7242	130	34.901495771348
4	7243	130	34.880420543222
4	7244	130	34.875368318862
4	7245	130	34.84420448164
4	7246	130	34.83063330603
4	7247	130	34.780258349091
4	7248	130	34.68801319357
4	7249	130	34.676676417338
4	7250	130	34.512624618816
4	7251	130	34.215661804006
4	7252	130	34.093749967837
4	7253	130	34.060451929053
4	7254	130	33.97970134763
4	7255	130	33.730097701373
4	7256	130	33.579843226639
4	7257	130	33.301765361194
4	7258	130	33.295889371738
4	7259	130	32.843809282263
4	7260	130	32.623530066602
4	7261	130	32.580713627669
4	7262	130	31.706713677383
4	7263	130	31.648100977825
4	7264	130	31.587635350215
4	7265	130	31.559344929217
4	7266	130	31.51458717479
4	7267	130	31.285609884896
4	7268	130	31.260637713328
4	7269	130	31.159952490237
4	7270	130	31.150365050321
4	7271	130	30.974261362659
4	7272	130	30.699517509722
4	7273	130	30.509720240367
4	7274	130	30.082481455104
4	7275	130	29.894879831982
4	7276	130	29.815267630984
4	7277	130	29.673560415896
4	7278	130	29.348962412482
4	7279	130	29.241637995888
4	7280	130	28.707433001186
4	7281	130	28.700742049361
4	7282	130	28.607724900611
4	7283	130	28.496718555548
4	7284	130	27.728335294855
4	7285	130	27.558681932887
4	7286	130	26.97850012465
4	7287	130	26.874894313226
4	7288	130	26.780335604284
4	7289	130	26.103187423703
4	7290	130	25.877976864163
4	7291	130	25.603432062997
4	7292	130	25.533782336161
4	7293	130	25.401881776148
4	7294	130	25.358741807893
4	7295	130	25.222514752273
4	7296	130	24.850633437789
4	7297	130	24.480516308472
4	7298	130	24.220948994643
4	7299	130	23.916214938575
4	7300	130	23.893442807114
4	7301	130	23.473104090298
4	7302	130	23.448098980529
4	7303	130	23.152183952263
4	7304	130	22.96335570185
4	7305	130	22.962819570183
4	7306	130	22.863370276215
4	7307	130	22.327171258266
4	7308	130	21.802606153886
4	7309	130	21.621305898442
4	7310	130	21.467198434289
4	7311	130	21.380445196388
4	7312	130	20.924783247826
4	7313	130	20.836329010024
4	7314	130	20.641933731408
4	7315	130	20.624152886429
4	7316	130	20.209222409949
4	7317	130	20.059529562964
4	7318	130	19.832851910905
4	7319	130	19.786149169697
4	7320	130	19.767671665946
4	7321	130	19.719155874171
4	7322	130	19.328294119831
4	7323	130	19.003492031072
4	7324	130	18.743183609382
4	7325	130	18.581425584126
4	7326	130	18.576206791133
4	7327	130	18.445658067025
4	7328	130	18.428968463513
4	7329	130	18.41884682165
4	7330	130	18.273242245051
4	7331	130	18.203928843225
4	7332	130	17.952838708926
4	7333	130	17.914860357433
4	7334	130	17.566497553141
4	7335	130	17.438332338841
4	7336	130	16.984734260674
4	7337	130	16.875160521879
4	7338	130	16.730175834617
4	7339	130	16.008444831231
4	7340	130	15.50452679944
4	7341	130	15.372383780756
4	7342	130	15.342145695467
4	7343	130	15.314823923529
4	7344	130	15.120530332815
4	7345	130	14.921208476984
4	7346	130	14.854718092667
4	7347	130	14.618050187995
4	7348	130	13.957613397504
4	7349	130	13.671569527852
4	7350	130	13.519426207485
4	7351	130	13.440441149067
4	7352	130	13.364322969205
4	7353	130	13.318673644565
4	7354	130	13.000357221949
4	7355	130	12.737194375592
4	7356	130	12.727773208094
4	7357	130	12.467715379688
4	7358	130	12.320556714286
4	7359	130	12.226237570196
4	7360	130	11.908711712682
4	7361	130	11.614016157351
4	7362	130	11.192282660974
4	7363	130	11.102120698848
4	7364	130	10.985684488221
4	7365	130	10.976426587037
4	7366	130	10.843160411832
4	7367	130	10.764463932438
4	7368	130	10.627064805257
4	7369	130	10.589269101913
4	7370	130	10.395135952344
4	7371	130	10.274573770743
4	7372	130	9.734957162153
4	7373	130	9.401926216678
4	7374	130	9.277446611809
4	7375	130	8.859908559183
4	7376	130	8.83431457021
4	7377	130	8.752879134102
4	7378	130	8.537547404331
4	7379	130	8.512910729873
4	7380	130	8.476968518024
4	7381	130	8.016717844818
4	7382	130	7.618474716719
4	7383	130	7.445825007866
4	7384	130	7.362010847152
4	7385	130	7.191332709908
4	7386	130	7.1157899688
4	7387	130	6.535890238065
4	7388	130	6.403185901078
4	7389	130	6.38120534604
4	7390	130	6.190594660805
4	7391	130	5.927514162293
4	7392	130	5.871562801815
4	7393	130	5.574904762154
4	7394	130	5.526013383635
4	7395	130	5.471648679832
4	7396	130	5.264847515284
4	7397	130	5.256072979694
4	7398	130	5.173043700796
4	7399	130	4.91303449896
4	7400	130	4.57004987814
4	7401	130	4.489874635411
4	7402	130	4.453921817776
4	7403	130	4.117648938727
4	7404	130	4.087395049718
4	7405	130	4.03580600386
4	7406	130	3.950356480599
4	7407	130	3.936089079316
4	7408	130	3.880506469956
4	7409	130	3.635868521846
4	7410	130	3.53528603851
4	7411	130	3.460829681882
4	7412	130	3.32069547345
4	7413	130	3.221037710008
4	7414	130	3.139149847474
4	7415	130	2.878927319902
4	7416	130	2.541231754297
4	7417	130	2.505798872114
4	7418	130	2.061449431614
4	7419	130	1.992714354616
4	7420	130	1.751300122436
4	7421	130	1.532596247007
4	7422	130	1.3472888649
4	7423	130	1.210405076587
4	7424	130	1.185283006718
4	7425	130	0.990237198231
4	7426	130	0.966593959224
4	7427	130	0.83129998325
4	7428	130	0.753479971569
4	7429	130	0.082487095697
4	7430	130	0
4	7749	131	1.326272457368
4	7750	131	0.903592800511
4	7751	131	0.822294286998
4	7752	131	0.783456091242
4	7753	131	0.223551537549
4	7754	131	107.56303310246
4	7755	131	0
4	7791	132	0.911641281204
4	7792	132	0.895926435813
4	7793	132	0.827358490641
4	7794	132	0.474326134726
4	7795	132	0.295486136683
4	7796	132	108.52552931222
4	7797	132	0
4	7837	133	0.785995886505
4	7838	133	0.537043470747
4	7839	133	0.026067312799
4	7840	133	0
4	7897	134	0.911942761199
4	7898	134	0.863824955648
4	7899	134	0.757005758055
4	7900	134	0.649765920027
4	7901	134	0.637179023654
4	7902	134	0.585018392408
4	7903	134	0.443624759597
4	7904	134	0.176616142732
4	7905	134	110.47482817119
4	7906	134	0
4	7947	135	1.045943449289
4	7948	135	0.868613022368
4	7949	135	0.412142909371
4	7950	135	0
4	8005	136	0.877877975288
4	8006	136	0.853249673906
4	8007	136	0.847021487216
4	8008	136	0.790979191595
4	8009	136	0.740152009023
4	8010	136	0.689613933639
4	8011	136	0.515006123295
4	8012	136	0.492266517611
4	8013	136	0
4	8053	137	1.086889126196
4	8054	137	1.080310872235
4	8055	137	1.076076345864
4	8056	137	0.836241206652
4	8057	137	0.529639925498
4	8058	137	0.394927767405
4	8059	137	0.341133661737
4	8060	137	0.068538995399
4	8061	137	113.0596219591
4	8062	137	112.87219421556
4	8063	137	112.62843485489
4	8064	137	112.59244338658
4	8065	137	112.45380343267
4	8066	137	112.44346685151
4	8067	137	112.27128212417
4	8068	137	111.72701247299
4	8069	137	0
4	8113	138	0.864418498468
4	8114	138	0.812442108052
4	8115	138	0.219050842636
4	8116	138	0
4	8153	139	0.996856173364
4	8154	139	0.943963260981
4	8155	139	0.916410252273
4	8156	139	0.888705883851
4	8157	139	0.802449217421
4	8158	139	0.67492287357
4	8159	139	0.616665176891
4	8160	139	0.601557884709
4	8161	139	113.57359654208
4	8162	139	0
4	8219	140	1.394723636955
4	8220	140	0.724670615814
4	8221	140	0.656650699185
4	8222	140	0.537007224232
4	8223	140	0.387778224831
4	8224	140	0.378775328665
4	8225	140	0.348187681316
4	8226	140	0.194698896709
4	8227	140	114.39532082669
4	8228	140	0
4	8285	141	1.118525665837
4	8286	141	1.039585705993
4	8287	141	0.968196578736
4	8288	141	0.963282149581
4	8289	141	0.90121802664
4	8290	141	0.856706899244
4	8291	141	0.645524719381
4	8292	141	0.516529551843
4	8293	141	115.11738541394
4	8294	141	115.04260811476
4	8295	141	114.94103509022
4	8296	141	114.89328451565
4	8297	141	114.84296479303
4	8298	141	114.26514967465
4	8299	141	114.20644814426
4	8300	141	114.18861728626
4	8301	141	0
4	8361	142	1.502829415487
4	8362	142	1.441080261899
4	8363	142	1.438287848248
4	8364	142	1.43556769305
4	8365	142	0.950262581227
4	8366	142	0.603128891326
4	8367	142	0.57695630417
4	8368	142	0.32580253181
4	8369	142	115.17666109368
4	8370	142	0
4	8421	143	1.162490265596
4	8422	143	0.931190112365
4	8423	143	0.788020822901
4	8424	143	0.777535619131
4	8425	143	0.104079956692
4	8426	143	0.097945181555
4	8427	143	0.09781229431
4	8428	143	0
4	8473	144	0.616061746171
4	8474	144	0.380849800728
4	8475	144	0.319368170696
4	8476	144	0.153827806344
4	8477	144	0
4	8513	145	0.949795794072
4	8514	145	0.802719345597
4	8515	145	0.701246814382
4	8516	145	0.40335894036
4	8517	145	0.008525602296
4	8518	145	118.16504662126
4	8519	145	0
4	8555	146	0.786115825025
4	8556	146	0.35566271851
4	8557	146	119.0510671082
4	8558	146	0
4	8599	147	0.838035985236
4	8600	147	0.812406268056
4	8601	147	0.089899359414
4	8602	147	0
4	8637	148	0.407316706877
4	8638	148	120.97633314932
4	8639	148	17.817022501199
4	8640	148	0
4	8669	149	0.877478322106
4	8670	149	0.580290385406
4	8671	149	0.149769821478
4	8672	149	0.136098150489
4	8673	149	0
4	8725	150	0.965695855006
4	8726	150	0.843045750702
4	8727	150	0.710316215655
4	8728	150	0.600129820744
4	8729	150	0.553318411486
4	8730	150	0.464760427077
4	8731	150	0.370647531835
4	8732	150	0.254192465605
4	8733	150	122.55059913041
4	8734	150	0
4	8769	151	1.193213266741
4	8770	151	0.428468152007
4	8771	151	0.046618054018
4	8772	151	0
4	8803	152	0.990336907145
4	8804	152	0.966912739334
4	8805	152	0.922009836917
4	8806	152	0.722709248828
4	8807	152	0.707139607701
4	8808	152	124.51100558335
4	8809	152	0
4	8851	153	0.464816732424
4	8852	153	0.420460002557
4	8853	153	125.35461043917
4	8854	153	0
4	8897	154	0.795186273747
4	8898	154	0.534384375146
4	8899	154	0.220570205689
4	8900	154	0
4	8961	155	0.911320636974
4	8962	155	0.832147552467
4	8963	155	0.792096961483
4	8964	155	0.755723133066
4	8965	155	0.690950791596
4	8966	155	0.604825690377
4	8967	155	0.359711089989
4	8968	155	0.158693845422
4	8969	155	127.34068690496
4	8970	155	127.06830056009
4	8971	155	126.84079285899
4	8972	155	126.65398079247
4	8973	155	126.40314013845
4	8974	155	126.27635413457
4	8975	155	126.22745593016
4	8976	155	126.00987504344
4	8977	155	0
4	9019	156	0.836550501668
4	9020	156	0.525692177784
4	9021	156	126.94875406307
4	9022	156	0
4	9069	157	0.6451092996
4	9070	157	0.464047231243
4	9071	157	0.376401693187
4	9072	157	0.086057988487
4	9073	157	0
4	9113	158	0.995790535157
4	9114	158	0.481813823954
4	9115	158	0.304393902137
4	9116	158	0.060938000256
4	9117	158	0
4	9153	159	0.523054122573
4	9154	159	0.255945095715
4	9155	159	0.001161972192
4	9156	159	0
4	9189	160	0.682001780778
4	9190	160	0.572000307959
4	9191	160	0.26971155639
4	9192	160	0.178104347519
4	9193	160	0
4	9227	161	0.932675296004
4	9228	161	0.581723558062
4	9229	161	0.178451374286
4	9230	161	0
4	9279	162	0.693611823474
4	9280	162	0.470120583136
4	9281	162	0.402545267753
4	9282	162	0.102089386178
4	9283	162	0.018099243924
4	9284	162	132.9192348565
4	9285	162	0
4	9325	163	0.579774114114
4	9326	163	0.368088152434
4	9327	163	0.244513828692
4	9328	163	0
4	9377	164	0.906790504009
4	9378	164	0.583825145112
4	9379	164	0.254227017899
4	9380	164	0.2416620115
4	9381	164	0.204439585262
4	9382	164	134.91506141277
4	9383	164	0
4	9413	165	0.770485197072
4	9414	165	0.758963306915
4	9415	165	0.591239566101
4	9416	165	0.446739832367
4	9417	165	0
4	9447	166	0.640490880913
4	9448	166	0.083538757154
4	9449	166	136.86299113046
4	9450	166	0
4	9509	167	0.960962562039
4	9510	167	0.67768889662
4	9511	167	0.670037515576
4	9512	167	0.628923553815
4	9513	167	0.33390614436
4	9514	167	0.223279900136
4	9515	167	0.216033847563
4	9516	167	0
4	9569	168	0.997787664245
4	9570	168	0.984839665305
4	9571	168	0.785058111323
4	9572	168	0.114033218737
4	9573	168	0
4	9605	169	0.970512160774
4	9606	169	0.91815981884
4	9607	169	0.827697280705
4	9608	169	0.815859641152
4	9609	169	0.505705305469
4	9610	169	139.57891443935
4	9611	169	0
4	9643	170	0.912691432658
4	9644	170	0.63567126138
4	9645	170	0.453253360732
4	9646	170	0.345154682327
4	9647	170	0
4	9685	171	0.866360521999
4	9686	171	0.834927837526
4	9687	171	0.774875021656
4	9688	171	0.731726299974
4	9689	171	0
4	9709	172	0.742568761136
4	9710	172	0.527626283188
4	9711	172	142.10934568706
4	9712	172	0
4	9751	173	0.994546562712
4	9752	173	0.788307726568
4	9753	173	0.699332266907
4	9754	173	0.49577320953
4	9755	173	0.383350557149
4	9756	173	142.96267215243
4	9757	173	0
4	9813	174	0.872900383106
4	9814	174	0.564368282494
4	9815	174	0.492847160787
4	9816	174	0.170159379564
4	9817	174	0.118623614692
4	9818	174	0.056516485158
4	9819	174	0.034928870193
4	9820	174	0
4	9869	175	0.868618344634
4	9870	175	0.841726573057
4	9871	175	0.79584106875
4	9872	175	0.765735604559
4	9873	175	0.213303941539
4	9874	175	0.136075456452
4	9875	175	144.96266108205
4	9876	175	0
4	9915	176	0.549309116891
4	9916	176	0.193700975967
4	9917	176	145.55049683387
4	9918	176	0
4	9949	177	0.846732559676
4	9950	177	0.338920137644
4	9951	177	0.105672747973
4	9952	177	0
4	9987	178	0.991361677279
4	9988	178	0.716734915366
4	9989	178	0.661180316543
4	9990	178	0.105493158219
4	9991	178	0
4	10035	179	0.872805839754
4	10036	179	0.864095711493
4	10037	179	0.615226695923
4	10038	179	0.446235647337
4	10039	179	0.205088356347
4	10040	179	148.50942728013
4	10041	179	0
4	10081	180	0.919770690066
4	10082	180	0.621663931219
4	10083	180	149.28161574999
4	10084	180	0
4	10117	181	0.590540295608
4	10118	181	0.544532057343
4	10119	181	0.142347802924
4	10120	181	0.128880068953
4	10121	181	0.119761080439
4	10122	181	0.061904379437
4	10123	181	150.15980682745
4	10124	181	0
4	10171	182	0.572881940223
4	10172	182	0.555861604209
4	10173	182	0.453546912774
4	10174	182	0.234301048321
4	10175	182	0.181425500887
4	10176	182	0.032151078471
4	10177	182	151.0277062115
4	10178	182	0
4	10227	183	0.882116660985
4	10228	183	0.827880039077
4	10229	183	0.301777832075
4	10230	183	0.064886678874
4	10231	183	0
4	10281	184	0.856917642558
4	10282	184	0.729486084273
4	10283	184	0.729342640694
4	10284	184	0.497427849793
4	10285	184	0.307198547067
4	10286	184	152.71677362394
4	10287	184	0
4	10337	185	0.974734069655
4	10338	185	0.958438668382
4	10339	185	0.700011712822
4	10340	185	0.364443155085
4	10341	185	0
4	10369	186	0.696737685374
4	10370	186	0.298700309251
4	10371	186	0.233557067783
4	10372	186	0
4	10411	187	0.914358463321
4	10412	187	0.698613854178
4	10413	187	0.439066265556
4	10414	187	0
4	10459	188	0.862469581615
4	10460	188	0.337663987869
4	10461	188	0.32966154342
4	10462	188	0.323529950944
4	10463	188	0.211055067554
4	10464	188	156.29222429315
4	10465	188	0
4	10519	189	0.797837761807
4	10520	189	0.558376201806
4	10521	189	0.402050256278
4	10522	189	0.365231521341
4	10523	189	0.352402562839
4	10524	189	0.189956419887
4	10525	189	157.16458657203
4	10526	189	0
4	10561	190	0.555619141824
4	10562	190	0.362036073455
4	10563	190	0.169832177464
4	10564	190	0.135888331486
4	10565	190	0
4	10603	191	0.925083824058
4	10604	191	0.635390328213
4	10605	191	0.522883904353
4	10606	191	0.144342842586
4	10607	191	0
4	10645	192	0.62816833483
4	10646	192	0.487023055095
4	10647	192	0.386109180821
4	10648	192	0.353846457388
4	10649	192	0.327654986009
4	10650	192	0.282978799331
4	10651	192	160.11808156835
4	10652	192	0
4	10711	193	0.618614339782
4	10712	193	0.606222670988
4	10713	193	0.193523869444
4	10714	193	0
4	10739	194	0.620221149982
4	10740	194	0.604936940451
4	10741	194	0.533958689077
4	10742	194	0.475067353794
4	10743	194	0.189411357644
4	10744	194	162.08470664011
4	10745	194	0
4	10785	195	0.911722703448
4	10786	195	162.97413896598
4	10787	195	64.11518957937
4	10788	195	0
4	10821	196	0.666509063558
4	10822	196	0.45247862763
4	10823	196	0.32885205312
4	10824	196	0.272272725526
4	10825	196	0
4	10875	197	0.840116683437
4	10876	197	0.307947941534
4	10877	197	0.240885412951
4	10878	197	0.21892510163
4	10879	197	0.077489786247
4	10880	197	164.71194449234
4	10881	197	0
4	10925	198	0.815621265819
4	10926	198	0.800045942627
4	10927	198	0.485522211775
4	10928	198	0.353402089777
4	10929	198	0
4	10965	199	0.927359086663
4	10966	199	0.550501260797
4	10967	199	166.66356056339
4	10968	199	0
4	11007	200	0.995460933707
4	11008	200	0.99367215848
4	11009	200	0.870907378728
4	11010	200	0.427072113074
4	11011	200	0.133963903425
4	11012	200	0.056880259486
4	11013	200	167.59851735979
4	11014	200	0
4	11059	201	0.35281449632
4	11060	201	0.349537232803
4	11061	201	0.257148967831
4	11062	201	0.140156545333
4	11063	201	0
4	11113	202	0.683427904781
4	11114	202	0.328475337279
4	11115	202	0.204105259281
4	11116	202	0
4	11151	203	0.984081280532
4	11152	203	0.782033628651
4	11153	203	0.630392234575
4	11154	203	0
4	11191	204	0.870804961858
4	11192	204	0.350084843739
4	11193	204	0.095870551521
4	11194	204	0.052829698543
4	11195	204	0.025961686995
4	11196	204	0.002148668709
4	11197	204	171.19970951954
4	11198	204	0
4	11243	205	0.279054070115
4	11244	205	0.179914488901
4	11245	205	172.05400475099
4	11246	205	0
4	11275	206	0.46932575938
4	11276	206	0.126370847178
4	11277	206	172.8016422163
4	11278	206	0
4	11321	207	0.47788033189
4	11322	207	0.293982575941
4	11323	207	0.250177207047
4	11324	207	0.143601767854
4	11325	207	0
4	11359	208	0.895986680857
4	11360	208	0.120749743701
4	11361	208	174.43458953571
4	11362	208	0
4	11399	209	0.981534558861
4	11400	209	0.95603027389
4	11401	209	0.661621418076
4	11402	209	0.629035320203
4	11403	209	0.332802003206
4	11404	209	0.037070226427
4	11405	209	175.4284042774
4	11406	209	0
4	11441	210	0.933351307156
4	11442	210	0.911143832741
4	11443	210	0.101186765512
4	11444	210	0
4	11481	211	0.787513618686
4	11482	211	0.519515746658
4	11483	211	0.197762683812
4	11484	211	0.070942387124
4	11485	211	0
4	11535	212	0.9329380587
4	11536	212	0.726374865424
4	11537	212	0.655540450355
4	11538	212	0.521732715144
4	11539	212	0.345220834582
4	11540	212	0.330184970861
4	11541	212	0.244438675872
4	11542	212	0
4	11579	213	0.866564616533
4	11580	213	0.490698533392
4	11581	213	0.383655561144
4	11582	213	0.356377291342
4	11583	213	0.303138769252
4	11584	213	179.13849332211
4	11585	213	0
4	11619	214	0.935819733696
4	11620	214	0.849579684025
4	11621	214	0.648750143929
4	11622	214	0.144258379007
4	11623	214	0.048760393983
4	11624	214	179.86230070298
4	11625	214	0
4	11679	215	0.815393955091
4	11680	215	0.657079513606
4	11681	215	0.542580787875
4	11682	215	0.323254794007
4	11683	215	0.144482596277
4	11684	215	180.70162235044
4	11685	215	0
4	11739	216	0.999515706084
4	11740	216	0.908328123471
4	11741	216	0.815535587723
4	11742	216	0.751664328344
4	11743	216	0.692031176068
4	11744	216	0.684032895338
4	11745	216	0.414429620201
4	11746	216	0.216488539303
4	11747	216	181.43849709879
4	11748	216	85.07124483027
4	11749	216	84.945353250004
4	11750	216	84.792249155235
4	11751	216	84.719718152627
4	11752	216	84.407147841746
4	11753	216	84.262429488127
4	11754	216	84.260483386941
4	11755	216	83.933261438822
4	11756	216	83.903942280312
4	11757	216	83.64651385915
4	11758	216	83.467775480801
4	11759	216	83.332178376459
4	11760	216	83.242628721507
4	11761	216	83.044114897938
4	11762	216	82.68498351017
4	11763	216	82.682534342401
4	11764	216	82.676018211684
4	11765	216	82.59805176238
4	11766	216	82.219533496566
4	11767	216	82.211221072806
4	11768	216	81.653763346269
4	11769	216	81.147937058275
4	11770	216	81.138942724687
4	11771	216	80.968236390618
4	11772	216	80.928878697394
4	11773	216	80.782050934128
4	11774	216	80.755507128159
4	11775	216	80.141089400114
4	11776	216	80.019069339673
4	11777	216	80.009484956254
4	11778	216	79.875028233921
4	11779	216	79.819170653519
4	11780	216	79.641513833087
4	11781	216	79.588881653766
4	11782	216	79.309013741282
4	11783	216	79.115233660704
4	11784	216	78.748959064683
4	11785	216	78.720196793725
4	11786	216	78.418932261273
4	11787	216	78.041702495894
4	11788	216	77.623747718358
4	11789	216	77.609643245439
4	11790	216	77.033694489172
4	11791	216	76.975834623538
4	11792	216	76.721677399662
4	11793	216	76.662968918993
4	11794	216	76.60130940874
4	11795	216	76.574078094066
4	11796	216	76.150264103508
4	11797	216	75.953186054598
4	11798	216	75.840721569605
4	11799	216	75.705017659909
4	11800	216	75.620351578698
4	11801	216	75.540076723655
4	11802	216	74.843990439582
4	11803	216	74.790996012438
4	11804	216	74.746207820349
4	11805	216	74.215849695267
4	11806	216	74.163764681369
4	11807	216	74.055288742624
4	11808	216	74.054223902943
4	11809	216	73.904740167839
4	11810	216	73.547697344322
4	11811	216	73.337030221614
4	11812	216	72.945227397519
4	11813	216	72.939551207763
4	11814	216	72.874315048258
4	11815	216	72.833291653156
4	11816	216	72.792157829164
4	11817	216	72.339655668406
4	11818	216	71.601120924163
4	11819	216	71.570733552441
4	11820	216	71.514890344784
4	11821	216	70.280050930193
4	11822	216	70.222080243075
4	11823	216	70.073370145612
4	11824	216	70.039002674655
4	11825	216	69.951541903449
4	11826	216	69.642380661666
4	11827	216	69.629571958052
4	11828	216	69.196969318241
4	11829	216	69.047680423738
4	11830	216	68.424999887644
4	11831	216	68.354818753303
4	11832	216	68.025371552696
4	11833	216	67.606518063187
4	11834	216	67.300580576256
4	11835	216	67.154207168353
4	11836	216	66.458368328768
4	11837	216	66.42261851808
4	11838	216	66.217657869096
4	11839	216	66.206053182864
4	11840	216	66.05839815708
4	11841	216	65.977868764141
4	11842	216	65.931718396746
4	11843	216	65.592758111837
4	11844	216	65.519363136261
4	11845	216	64.682433074167
4	11846	216	64.592168757051
4	11847	216	63.709437736213
4	11848	216	63.42281361983
4	11849	216	63.316460433474
4	11850	216	62.868025502052
4	11851	216	62.808676144894
4	11852	216	62.75463172499
4	11853	216	62.635650491457
4	11854	216	62.555659083374
4	11855	216	62.452442138236
4	11856	216	62.438168616112
4	11857	216	62.415273670234
4	11858	216	61.841832455693
4	11859	216	61.820215994237
4	11860	216	61.719039808084
4	11861	216	61.577856973315
4	11862	216	61.284239990748
4	11863	216	61.231818597041
4	11864	216	61.1692298263
4	11865	216	61.088287453242
4	11866	216	60.549903658377
4	11867	216	60.47378324278
4	11868	216	60.12311550196
4	11869	216	60.101154572553
4	11870	216	60.100088729537
4	11871	216	59.899074362278
4	11872	216	59.442140534487
4	11873	216	59.42027163178
4	11874	216	59.413400630348
4	11875	216	59.40974821045
4	11876	216	59.392445655157
4	11877	216	59.213840277243
4	11878	216	59.099466124242
4	11879	216	58.729924800179
4	11880	216	0
4	12051	217	1.116074392203
4	12052	217	0.823076617901
4	12053	217	0.724450963935
4	12054	217	0.64867059216
4	12055	217	0.594968526501
4	12056	217	0.136787382122
4	12057	217	0.130884966053
4	12058	217	0
4	12107	218	0.95346202546
4	12108	218	183.39156592893
4	12109	218	60.658831480156
4	12110	218	0
4	12153	219	0.649428888255
4	12154	219	0.303434632119
4	12155	219	0.213978755175
4	12156	219	0.17431140274
4	12157	219	0.101465863313
4	12158	219	184.32393498596
4	12159	219	0
4	12195	220	0.528306487014
4	12196	220	0.419020990281
4	12197	220	0.374669034863
4	12198	220	0.198470739413
4	12199	220	0.019579111373
4	12200	220	185.09775129013
4	12201	220	0
4	12247	221	0.809091717415
4	12248	221	0.509493580656
4	12249	221	0.477754720247
4	12250	221	0.381155957796
4	12251	221	0.281270321923
4	12252	221	0.183796518672
4	12253	221	0.169649191947
4	12254	221	0
4	12307	222	0.64044768081
4	12308	222	0.264961532649
4	12309	222	0.001501712006
4	12310	222	0
4	12343	223	0.09791532549
4	12344	223	0.017827904691
4	12345	223	188.09589468525
4	12346	223	0
4	12389	224	0.600828885117
4	12390	224	0.476813282072
4	12391	224	0.273390474119
4	12392	224	0.255779765683
4	12393	224	0
4	12431	225	0.932068023977
4	12432	225	0.891077785038
4	12433	225	0.883954559693
4	12434	225	0.776683046852
4	12435	225	0.621835718904
4	12436	225	0.501610139181
4	12437	225	0.179892554359
4	12438	225	0
4	12481	226	0.48714133161
4	12482	226	0.258265720247
4	12483	226	190.87421273441
4	12484	226	0
4	12517	227	0.450200551303
4	12518	227	0.394782687433
4	12519	227	0.339818376252
4	12520	227	0.282202516214
4	12521	227	0
4	12561	228	0.994145118843
4	12562	228	0.585820485978
4	12563	228	0.493001931768
4	12564	228	0.267750628746
4	12565	228	0.155744032085
4	12566	228	0.023048873138
4	12567	228	192.51621481351
4	12568	228	0
4	12609	229	0.71950519924
4	12610	229	0.692453000051
4	12611	229	0.672963240968
4	12612	229	0.279702706234
4	12613	229	0
4	12641	230	0.984828489207
4	12642	230	0.647796608193
4	12643	230	0.338079495235
4	12644	230	0
4	12703	231	0.997244893386
4	12704	231	0.819669000349
4	12705	231	0.722347558964
4	12706	231	0.369735901116
4	12707	231	0.314181098316
4	12708	231	0.152071573309
4	12709	231	195.27307671884
4	12710	231	0
4	12755	232	0.860328005902
4	12756	232	0.746047860372
4	12757	232	0.525737102432
4	12758	232	0.336402700183
4	12759	232	0.311638221115
4	12760	232	0.219516974757
4	12761	232	196.2598583167
4	12762	232	0
4	12819	233	0.929652801029
4	12820	233	0.907009521312
4	12821	233	0.770463311953
4	12822	233	0.308591238915
4	12823	233	0.055526058226
4	12824	233	197.11620902068
4	12825	233	0
4	12867	234	0.699875930346
4	12868	234	0.142963858704
4	12869	234	0.055602388145
4	12870	234	0
4	12917	235	0.682636160323
4	12918	235	0.250727750356
4	12919	235	0.081915579851
4	12920	235	0
4	12963	236	0.921422353559
4	12964	236	0.872426566147
4	12965	236	0.870546037945
4	12966	236	0.598889334098
4	12967	236	0.14202904155
4	12968	236	0.010645407822
4	12969	236	199.35740426406
4	12970	236	0
4	13029	237	0.987409854397
4	13030	237	0.909777433265
4	13031	237	0.789043645709
4	13032	237	0.71043544406
4	13033	237	0.635860988897
4	13034	237	0.627693032932
4	13035	237	0.278253745344
4	13036	237	0.094380776859
4	13037	237	199.70562006862
4	13038	237	199.45417266951
4	13039	237	199.32100417218
4	13040	237	199.12191144351
4	13041	237	198.98402453594
4	13042	237	198.61173820734
4	13043	237	198.31488971081
4	13044	237	198.28282289192
4	13045	237	0
4	13111	238	0.734519542067
4	13112	238	0.671651025274
4	13113	238	0.228801468656
4	13114	238	0.226981210928
4	13115	238	0.066578177905
4	13116	238	0.003505206714
4	13117	238	198.97960910595
4	13118	238	0
4	13165	239	0.859865603742
4	13166	239	0.77276063252
4	13167	239	0.769758206544
4	13168	239	0.736210424585
4	13169	239	0.53044411831
4	13170	239	199.1392372207
4	13171	239	0
4	13217	240	0.893875792992
4	13218	240	0.457569342318
4	13219	240	0.21635210797
4	13220	240	0
4	13267	241	0.661544180236
4	13268	241	0.467034179921
4	13269	241	0.316564474088
4	13270	241	0.031598798777
4	13271	241	0
4	13311	242	0.921372967375
4	13312	242	0.905969862543
4	13313	242	0.533785904449
4	13314	242	0.333340554215
4	13315	242	0.242112537211
4	13316	242	0.227038462685
4	13317	242	202.03354377504
4	13318	242	0
4	13357	243	0.391470631857
4	13358	243	0.218882439859
4	13359	243	202.96282445999
4	13360	243	0
4	13395	244	0.907667087732
4	13396	244	0.541129923141
4	13397	244	0.207947598322
4	13398	244	0.010306606398
4	13399	244	0
4	13431	245	0.673931851309
4	13432	245	0.267286974139
4	13433	245	0.202127029607
4	13434	245	0.143347127191
4	13435	245	0
4	13481	246	0.984996542736
4	13482	246	0.915477054662
4	13483	246	0.793495459561
4	13484	246	0.604252900073
4	13485	246	0.601080220436
4	13486	246	0.306021043654
4	13487	246	0.166385321738
4	13488	246	0.160630735539
4	13489	246	205.86028153146
4	13490	246	205.83456548401
4	13491	246	205.78376320834
4	13492	246	204.99423655483
4	13493	246	204.68317768276
4	13494	246	204.5771853669
4	13495	246	204.48815549902
4	13496	246	204.40711892255
4	13497	246	0
4	13537	247	0.981443815979
4	13538	247	0.737469316841
4	13539	247	0.542384106151
4	13540	247	0
4	13569	248	0.917844755177
4	13570	248	0.570087466041
4	13571	248	0.215521691655
4	13572	248	0.081727509418
4	13573	248	0.079046395214
4	13574	248	206.30512075578
4	13575	248	0
4	13613	249	0.953675022486
4	13614	249	0.767261158208
4	13615	249	0.57019973324
4	13616	249	0.508271529922
4	13617	249	0.167410736893
4	13618	249	0.109708539264
4	13619	249	207.28820485743
4	13620	249	0
4	13665	250	0.726774785977
4	13666	250	0.714726273386
4	13667	250	0.032192911566
4	13668	250	0
4	13707	251	0.91775457664
4	13708	251	0.856095198474
4	13709	251	0.428415331609
4	13710	251	0.056415790976
4	13711	251	0.04372159579
4	13712	251	209.1836113267
4	13713	251	0
4	13757	252	0.960192205999
4	13758	252	0.861454287556
4	13759	252	0.622168424492
4	13760	252	0
4	13805	253	0.918338908189
4	13806	253	0.783454564887
4	13807	253	0.752264614143
4	13808	253	0.704439901918
4	13809	253	0.466102948617
4	13810	253	0.310846964913
4	13811	253	0.193224493249
4	13812	253	0
4	13857	254	0.986587281955
4	13858	254	0.967008700813
4	13859	254	0.927009088326
4	13860	254	0.6301350005
4	13861	254	0.488331036502
4	13862	254	0.464571018789
4	13863	254	211.66229696624
4	13864	254	0
4	13913	255	0.87874277786
4	13914	255	0.861544830756
4	13915	255	0.740301384288
4	13916	255	0.689027722669
4	13917	255	0.567915347928
4	13918	255	212.36785613464
4	13919	255	0
4	13965	256	0.947411506475
4	13966	256	0.085004493041
4	13967	256	213.34908122518
4	13968	256	0
4	14003	257	0.903330298401
4	14004	257	0.611318353771
4	14005	257	0.248116476472
4	14006	257	0.225967209072
4	14007	257	0.201711578041
4	14008	257	0.184266260309
4	14009	257	214.1261037408
4	14010	257	0
4	14061	258	0.630951238846
4	14062	258	0.554273963689
4	14063	258	0.532491015055
4	14064	258	0.313197250107
4	14065	258	0.289352440903
4	14066	258	0.102471356831
4	14067	258	215.0697989363
4	14068	258	0
4	14109	259	0.855665416372
4	14110	259	0.821544992965
4	14111	259	0.79761895536
4	14112	259	0.663795890308
4	14113	259	0.652395517326
4	14114	259	0.399093545095
4	14115	259	0.11691572167
4	14116	259	0
4	14161	260	0.865978182786
4	14162	260	0.591236356639
4	14163	260	0.520664165418
4	14164	260	0.398158574075
4	14165	260	0.15424400119
4	14166	260	0.102639051024
4	14167	260	216.95662002798
4	14168	260	0
4	14213	261	0.910676601957
4	14214	261	0.896537760447
4	14215	261	0.45898214304
4	14216	261	0.320021157941
4	14217	261	0.252510416483
4	14218	261	0.185366933463
4	14219	261	217.67764620972
4	14220	261	0
4	14271	262	0.63396984416
4	14272	262	0.580434308099
4	14273	262	0.517834498841
4	14274	262	0.488868183699
4	14275	262	0.393115913295
4	14276	262	0.221628099635
4	14277	262	0.18043713265
4	14278	262	0.172797528483
4	14279	262	218.5823504932
4	14280	262	0
4	14325	263	1.170939324553
4	14326	263	0.874147252896
4	14327	263	0.72008094286
4	14328	263	0.700680020796
4	14329	263	0.452771654145
4	14330	263	219.32266136608
4	14331	263	0
4	14381	264	0.635463822224
4	14382	264	0.500419654661
4	14383	264	0.152976654892
4	14384	264	0.111305712067
4	14385	264	0.098849874841
4	14386	264	220.31126805959
4	14387	264	0
4	14439	265	0.647533168816
4	14440	265	0.069603937275
4	14441	265	0.013365689432
4	14442	265	0
4	14479	266	0.441197381396
4	14480	266	0.310298403727
4	14481	266	0.130957537518
4	14482	266	0.103938437396
4	14483	266	0.073108555984
4	14484	266	222.18183311878
4	14485	266	0
4	14523	267	0.920513423694
4	14524	267	0.634428532262
4	14525	267	0.563743075281
4	14526	267	0.38327603328
4	14527	267	0.356532801305
4	14528	267	0.265931951212
4	14529	267	223.12103880693
4	14530	267	0
4	14571	268	0.88857917336
4	14572	268	0.584947290252
4	14573	268	0.296223990806
4	14574	268	0
4	14617	269	0.982624793384
4	14618	269	0.747825615414
4	14619	269	0.180287361355
4	14620	269	0.080744980778
4	14621	269	0.021518742468
4	14622	269	224.99922591587
4	14623	269	0
4	14657	270	0.997334980488
4	14658	270	0.21114401532
4	14659	270	225.88254116166
4	14660	270	0
4	14701	271	0.855634060909
4	14702	271	0.841295156848
4	14703	271	0.770539253941
4	14704	271	0.523492122004
4	14705	271	0.005905139369
4	14706	271	226.49957271013
4	14707	271	0
4	14751	272	0.852134503842
4	14752	272	0.629449216661
4	14753	272	0.59007168365
4	14754	272	0.584463143221
4	14755	272	0.220214578361
4	14756	272	0.187955666416
4	14757	272	227.18882360973
4	14758	272	0
4	14807	273	0.932504896756
4	14808	273	0.898709129843
4	14809	273	0.884175901793
4	14810	273	0.677687358937
4	14811	273	0.507027129858
4	14812	273	227.8871805634
4	14813	273	0
4	14877	274	0.963891312849
4	14878	274	0.914214432719
4	14879	274	0.544322289785
4	14880	274	0.368812843325
4	14881	274	0.235338719021
4	14882	274	0.111413852004
4	14883	274	228.65844243929
4	14884	274	0
4	14929	275	0.852310757121
4	14930	275	0.565775841295
4	14931	275	0.558604844251
4	14932	275	0.525932718431
4	14933	275	0.486081338723
4	14934	275	0.45067379651
4	14935	275	0.368020355071
4	14936	275	0.343658908495
4	14937	275	229.65649535742
4	14938	275	0
4	14995	276	1.274946234688
4	14996	276	0.891840342791
4	14997	276	0.810914197831
4	14998	276	0.466500940413
4	14999	276	0.246688295934
4	15000	276	0.246369127818
4	15001	276	0.040004109277
4	15002	276	0
4	15043	277	0.737985119423
4	15044	277	0.400559705667
4	15045	277	0.24655453972
4	15046	277	0.10337304326
4	15047	277	0
4	15085	278	0.946030942021
4	15086	278	0.840552709784
4	15087	278	0.5783622104
4	15088	278	0.527284917176
4	15089	278	0.211699936975
4	15090	278	232.59277858784
4	15091	278	0
4	15133	279	0.979527895598
4	15134	279	0.686461315368
4	15135	279	0.614592601839
4	15136	279	0.072614562914
4	15137	279	0
4	15177	280	0.788996365409
4	15178	280	0.788981625475
4	15179	280	0.49464045908
4	15180	280	0.435970145727
4	15181	280	0.406686586169
4	15182	280	0.280484116024
4	15183	280	0.128483050465
4	15184	280	0.04139828832
4	15185	280	234.50010058233
4	15186	280	0
4	15233	281	1.006647445033
4	15234	281	0.964178887618
4	15235	281	0.796237820976
4	15236	281	0.575727567549
4	15237	281	0.28156490169
4	15238	281	0.212616564937
4	15239	281	235.45620695016
4	15240	281	0
4	15305	282	0.96270366126
4	15306	282	0.955125663589
4	15307	282	0.850046954482
4	15308	282	0.562700369401
4	15309	282	0.557185468653
4	15310	282	0.480785833461
4	15311	282	0.444385224348
4	15312	282	0.31104284868
4	15313	282	236.3330230934
4	15314	282	235.81453337164
4	15315	282	235.66822430381
4	15316	282	235.5341779285
4	15317	282	235.42709705828
4	15318	282	235.3888378491
4	15319	282	235.18138883028
4	15320	282	235.06882378992
4	15321	282	124.56049477112
4	15322	282	124.42728247074
4	15323	282	124.15824602169
4	15324	282	123.91922342274
4	15325	282	123.82051213501
4	15326	282	123.63639537039
4	15327	282	123.57515345694
4	15328	282	123.39428229824
4	15329	282	123.3651502986
4	15330	282	123.10638267728
4	15331	282	123.04091180409
4	15332	282	122.52180218288
4	15333	282	122.47742557927
4	15334	282	122.09882261257
4	15335	282	122.04192044622
4	15336	282	121.83222200272
4	15337	282	121.5783553361
4	15338	282	121.50023053584
4	15339	282	121.16150270339
4	15340	282	120.93782711404
4	15341	282	120.84557122146
4	15342	282	120.8455591071
4	15343	282	120.74998616923
4	15344	282	120.54160978945
4	15345	282	120.36933770615
4	15346	282	120.36540683471
4	15347	282	120.33441997157
4	15348	282	120.26271065465
4	15349	282	120.1889241437
4	15350	282	119.61882370173
4	15351	282	119.42457260894
4	15352	282	119.35363332384
4	15353	282	119.19444257004
4	15354	282	118.89730001651
4	15355	282	118.79983292234
4	15356	282	118.33728985326
4	15357	282	118.03146540641
4	15358	282	117.734675913
4	15359	282	117.13166901195
4	15360	282	117.13153065404
4	15361	282	116.14845675482
4	15362	282	116.09236322732
4	15363	282	116.03198315776
4	15364	282	115.91366756502
4	15365	282	115.89377039659
4	15366	282	115.84823439949
4	15367	282	115.42969109522
4	15368	282	115.34117012039
4	15369	282	115.34023698018
4	15370	282	115.14433896394
4	15371	282	115.04161031675
4	15372	282	115.02367031474
4	15373	282	114.93552234536
4	15374	282	114.87034403895
4	15375	282	114.83324367222
4	15376	282	114.62536593441
4	15377	282	114.59257247339
4	15378	282	114.5477059829
4	15379	282	114.46525610811
4	15380	282	114.28882609324
4	15381	282	114.21655956206
4	15382	282	113.43001441513
4	15383	282	113.26794598823
4	15384	282	113.16723103834
4	15385	282	112.5449308768
4	15386	282	112.53796166748
4	15387	282	112.51264099136
4	15388	282	112.19515913898
4	15389	282	111.92899471145
4	15390	282	111.8671644012
4	15391	282	111.370964746
4	15392	282	111.23232674769
4	15393	282	110.09897963638
4	15394	282	109.70347124858
4	15395	282	109.62779750717
4	15396	282	109.16123224372
4	15397	282	108.86718560473
4	15398	282	108.82799973594
4	15399	282	108.63445472832
4	15400	282	108.31889849548
4	15401	282	108.15970904169
4	15402	282	107.93484552257
4	15403	282	107.86573317523
4	15404	282	107.05094108474
4	15405	282	106.96835810962
4	15406	282	106.87706538681
4	15407	282	106.7805645499
4	15408	282	106.37789569873
4	15409	282	105.74318347219
4	15410	282	105.7220594876
4	15411	282	105.66698888212
4	15412	282	105.26333534177
4	15413	282	105.19363191946
4	15414	282	104.4412390143
4	15415	282	104.24712113434
4	15416	282	103.81566584059
4	15417	282	103.65630300739
4	15418	282	103.55539302178
4	15419	282	103.49144077971
4	15420	282	103.44153704217
4	15421	282	103.40818853128
4	15422	282	102.97893957437
4	15423	282	102.6642042042
4	15424	282	102.50435250878
4	15425	282	102.35235590956
4	15426	282	102.26275241413
4	15427	282	102.17901076944
4	15428	282	101.7712002029
4	15429	282	101.42434536582
4	15430	282	100.77646574191
4	15431	282	100.61318236302
4	15432	282	100.57772732551
4	15433	282	99.769245371503
4	15434	282	99.629231442358
4	15435	282	99.477237105448
4	15436	282	99.459650436387
4	15437	282	98.863363820642
4	15438	282	98.826356505685
4	15439	282	98.732655515123
4	15440	282	98.625843412594
4	15441	282	98.622865161491
4	15442	282	98.552700463477
4	15443	282	98.480422706948
4	15444	282	98.392445819183
4	15445	282	98.110543067411
4	15446	282	97.926817531915
4	15447	282	97.834001466998
4	15448	282	97.809004073985
4	15449	282	97.575615084032
4	15450	282	97.329426874558
4	15451	282	97.261729262378
4	15452	282	97.012325735637
4	15453	282	96.855556969912
4	15454	282	96.586424732412
4	15455	282	95.9577148157
4	15456	282	95.653529642426
4	15457	282	95.355305499188
4	15458	282	95.347829203339
4	15459	282	95.075679533081
4	15460	282	94.673260767644
4	15461	282	94.5423133217
4	15462	282	94.478190790226
4	15463	282	94.440940539848
4	15464	282	94.198915211019
4	15465	282	94.086051181201
4	15466	282	93.968481425249
4	15467	282	93.828892373662
4	15468	282	93.673565762751
4	15469	282	93.517466084879
4	15470	282	93.49614772084
4	15471	282	93.276097042844
4	15472	282	92.942621234503
4	15473	282	92.267899273311
4	15474	282	92.192957387234
4	15475	282	91.347904006931
4	15476	282	91.031631197661
4	15477	282	90.545204142673
4	15478	282	90.520012245618
4	15479	282	90.488873426536
4	15480	282	90.483770826793
4	15481	282	90.02596007452
4	15482	282	0
4	15693	283	1.158561966673
4	15694	283	1.066479736409
4	15695	283	1.035557158038
4	15696	283	1.006721407107
4	15697	283	0.60062377327
4	15698	283	0.514864313771
4	15699	283	0.270935556739
4	15700	283	0.233444259166
4	15701	283	235.90624411768
4	15702	283	0
4	15757	284	1.163445562981
4	15758	284	0.761944565941
4	15759	284	0.670905379025
4	15760	284	0.479726488096
4	15761	284	0.3954044873
4	15762	284	0.326180929223
4	15763	284	0.238063151307
4	15764	284	0.182955568438
4	15765	284	236.8714050856
4	15766	284	91.953645184586
4	15767	284	0
4	15811	285	1.008850113667
4	15812	285	0.621005180717
4	15813	285	0.568628223227
4	15814	285	0.316311364907
4	15815	285	0.127738350616
4	15816	285	237.71775441723
4	15817	285	0
4	15861	286	0.95071374484
4	15862	286	0.863112649921
4	15863	286	0.590827339843
4	15864	286	0.471303694045
4	15865	286	0
4	15911	287	0.789320932242
4	15912	287	0.724773025017
4	15913	287	0.571249312819
4	15914	287	0
4	15957	288	0.884348664488
4	15958	288	0.791632363375
4	15959	288	0.726062080281
4	15960	288	0.713213125236
4	15961	288	0.608017995319
4	15962	288	0.527250036012
4	15963	288	0.289494044946
4	15964	288	0
4	16001	289	0.377739724504
4	16002	289	0.236383891576
4	16003	289	241.65272024313
4	16004	289	0
4	16043	290	0.886093777039
4	16044	290	0.837098844355
4	16045	290	0.730849682779
4	16046	290	0.706433250024
4	16047	290	0.674564379159
4	16048	290	0.417040934376
4	16049	290	0.378298778609
4	16050	290	0.378261432347
4	16051	290	242.49775176723
4	16052	290	0
4	16109	291	1.301185595557
4	16110	291	0.682759957127
4	16111	291	0.62143515685
4	16112	291	0.466837517701
4	16113	291	0.296900610216
4	16114	291	0.218950758623
4	16115	291	0.214303943911
4	16116	291	0.049471038711
4	16117	291	243.46594936387
4	16118	291	243.43110962055
4	16119	291	243.40339225627
4	16120	291	242.93474427025
4	16121	291	242.45194098415
4	16122	291	242.03261372944
4	16123	291	241.90441902039
4	16124	291	241.66387626362
4	16125	291	0
4	16171	292	0.955349318702
4	16172	292	0.15337565283
4	16173	292	0.151914122699
4	16174	292	0.119712663899
4	16175	292	0.112917051455
4	16176	292	242.65838784354
4	16177	292	0
4	16217	293	0.934460835747
4	16218	293	0.166895403395
4	16219	293	243.45623401092
4	16220	293	0
4	16263	294	0.998475006845
4	16264	294	0.840021083939
4	16265	294	0.571503342688
4	16266	294	0.46439627904
4	16267	294	0.265141907106
4	16268	294	0.048339866291
4	16269	294	0.017961907938
4	16270	294	0.001183998245
4	16271	294	244.40134130652
4	16272	294	244.36634229687
4	16273	294	244.36437940959
4	16274	294	244.04606818503
4	16275	294	243.90606305781
4	16276	294	243.29144801326
4	16277	294	243.09704583504
4	16278	294	242.69945794407
4	16279	294	0
4	16325	295	0.811711286119
4	16326	295	0.655452410745
4	16327	295	0.251318039135
4	16328	295	0
4	16357	296	0.772845207307
4	16358	296	0.651304579707
4	16359	296	0.525509484811
4	16360	296	0.477950028964
4	16361	296	0
4	16415	297	0.983387210551
4	16416	297	0.814652651162
4	16417	297	0.744840352933
4	16418	297	0.646633757665
4	16419	297	0.446236985378
4	16420	297	0.421896506528
4	16421	297	0.266493854842
4	16422	297	0
4	16455	298	0.902783932766
4	16456	298	0.806143108231
4	16457	298	0.449224565377
4	16458	298	0.435219126634
4	16459	298	0.225140192838
4	16460	298	246.36141095312
4	16461	298	0
4	16507	299	0.881710564748
4	16508	299	0.668908749226
4	16509	299	0.644744375102
4	16510	299	0.353831553966
4	16511	299	0.1800029322
4	16512	299	247.34364447659
4	16513	299	0
4	16555	300	0.914879503406
4	16556	300	0.751141215687
4	16557	300	0.599468470145
4	16558	300	0.549458010537
4	16559	300	0
4	16607	301	0.98358273572
4	16608	301	0.969529181019
4	16609	301	0.739263909783
4	16610	301	0.574221640249
4	16611	301	0.068101546195
4	16612	301	249.30891316395
4	16613	301	0
4	16659	302	0.947629746443
4	16660	302	0.831528241539
4	16661	302	0.715655483357
4	16662	302	0.045585337919
4	16663	302	0
4	16695	303	0.894495967592
4	16696	303	0.355538032662
4	16697	303	251.28906885865
4	16698	303	0
4	16724	304	252.0908129575
4	16725	304	111.89161051297
4	16726	304	0
4	16772	305	0.927348605214
4	16773	305	0.900974237071
4	16774	305	0.813740073951
4	16775	305	0.689372107309
4	16776	305	0.308673505422
4	16777	305	0.190380730874
4	16778	305	0.175333856219
4	16779	305	0.174231863644
4	16780	305	252.98916906669
4	16781	305	112.86556927584
4	16782	305	112.57068234257
4	16783	305	110.80452908153
4	16784	305	110.55583765558
4	16785	305	110.38712073602
4	16786	305	110.28608239251
4	16787	305	110.25325230455
4	16788	305	110.23068967294
4	16789	305	110.03327133656
4	16790	305	109.81909077636
4	16791	305	109.68308132004
4	16792	305	109.56064427439
4	16793	305	109.4169560454
4	16794	305	108.93858901997
4	16795	305	108.87746148502
4	16796	305	108.63534416554
4	16797	305	108.60710349526
4	16798	305	108.31174399939
4	16799	305	108.262531148
4	16800	305	108.18866040644
4	16801	305	107.71168767779
4	16802	305	107.55050724295
4	16803	305	107.37859286198
4	16804	305	107.30272958857
4	16805	305	107.29363221693
4	16806	305	106.79724437503
4	16807	305	106.20060258185
4	16808	305	106.15681054818
4	16809	305	105.69198501113
4	16810	305	105.35183520191
4	16811	305	105.27967617938
4	16812	305	105.05310066072
4	16813	305	105.00935724109
4	16814	305	104.70141681246
4	16815	305	104.33114892933
4	16816	305	104.12525515238
4	16817	305	104.1175560254
4	16818	305	104.03998984431
4	16819	305	103.91142874736
4	16820	305	103.8782786602
4	16821	305	103.84801184269
4	16822	305	103.71729185113
4	16823	305	103.67834771397
4	16824	305	103.63374923013
4	16825	305	103.6218184897
4	16826	305	103.4506198716
4	16827	305	103.44286241734
4	16828	305	103.18960833245
4	16829	305	103.11617478227
4	16830	305	102.45021094796
4	16831	305	102.35639765806
4	16832	305	102.29945573641
4	16833	305	102.07463410168
4	16834	305	101.86012580232
4	16835	305	101.77103919797
4	16836	305	101.71281706268
4	16837	305	101.2515637967
4	16838	305	101.15383625646
4	16839	305	101.14765645472
4	16840	305	100.86265764915
4	16841	305	100.85400013291
4	16842	305	100.82161430358
4	16843	305	100.76992724757
4	16844	305	100.5294418377
4	16845	305	100.41103711726
4	16846	305	100.04824791814
4	16847	305	100.02386695892
4	16848	305	99.803815406371
4	16849	305	99.797084668104
4	16850	305	99.477108901284
4	16851	305	99.316965111418
4	16852	305	98.529840628263
4	16853	305	98.171956094913
4	16854	305	98.104261608469
4	16855	305	97.792256297864
4	16856	305	97.54076596633
4	16857	305	97.330997733829
4	16858	305	96.905274634604
4	16859	305	96.841222406237
4	16860	305	96.363488380525
4	16861	305	96.200071016383
4	16862	305	95.920327771967
4	16863	305	95.902133674393
4	16864	305	95.367760028605
4	16865	305	95.130668383694
4	16866	305	94.995620140671
4	16867	305	94.742762665744
4	16868	305	94.646398656698
4	16869	305	94.172452464516
4	16870	305	94.097969869645
4	16871	305	94.049310933353
4	16872	305	93.904744283012
4	16873	305	93.874942899392
4	16874	305	93.797981015687
4	16875	305	93.754848991646
4	16876	305	93.623662353947
4	16877	305	93.32850103876
4	16878	305	93.106507672617
4	16879	305	92.877922827572
4	16880	305	91.595934449132
4	16881	305	91.567061491612
4	16882	305	90.919416744009
4	16883	305	90.910740337625
4	16884	305	90.906670966985
4	16885	305	90.76216386818
4	16886	305	90.633336316748
4	16887	305	90.619123706779
4	16888	305	90.567134293421
4	16889	305	89.938094734861
4	16890	305	89.861657535255
4	16891	305	89.781874087619
4	16892	305	89.777896466147
4	16893	305	89.769549722465
4	16894	305	89.384532214848
4	16895	305	89.078255342923
4	16896	305	88.805900418699
4	16897	305	88.551079105307
4	16898	305	88.225363435958
4	16899	305	88.048638817265
4	16900	305	87.993988749147
4	16901	305	87.987015164723
4	16902	305	87.91529106307
4	16903	305	87.728180672566
4	16904	305	87.510609680088
4	16905	305	87.166518800333
4	16906	305	87.145722087965
4	16907	305	86.950850429449
4	16908	305	86.888017649585
4	16909	305	86.767482994224
4	16910	305	86.517327570445
4	16911	305	86.485625999481
4	16912	305	86.479957153728
4	16913	305	85.976873249063
4	16914	305	85.042361220645
4	16915	305	85.019840479674
4	16916	305	85.008102924586
4	16917	305	84.752695513554
4	16918	305	84.521977118849
4	16919	305	84.413949182271
4	16920	305	84.292965790922
4	16921	305	84.114786694993
4	16922	305	83.802366730005
4	16923	305	83.766717476815
4	16924	305	83.723748202108
4	16925	305	83.672141312863
4	16926	305	83.587025766419
4	16927	305	83.44576644138
4	16928	305	83.247207005172
4	16929	305	83.196019711957
4	16930	305	82.754361831554
4	16931	305	82.53691251774
4	16932	305	82.380727721402
4	16933	305	82.375171094667
4	16934	305	82.074120515071
4	16935	305	82.000621853934
4	16936	305	81.444196131776
4	16937	305	81.339854718317
4	16938	305	81.116289497357
4	16939	305	80.512684692385
4	16940	305	80.388796808834
4	16941	305	80.365434405529
4	16942	305	79.719030074415
4	16943	305	79.702789622334
4	16944	305	79.364648130969
4	16945	305	79.350864627617
4	16946	305	79.246760520301
4	16947	305	79.213526722449
4	16948	305	79.169517276824
4	16949	305	78.886190609121
4	16950	305	78.881809178765
4	16951	305	78.659049867002
4	16952	305	78.078273475134
[...]
4	214132	3545	5.285540165052
4	214133	3545	5.108519632072
4	214134	3545	4.684554881121
4	214135	3545	4.597743448772
4	214136	3545	4.571660293807
4	214137	3545	4.121923129022
4	214138	3545	3.991080346057
4	214139	3545	3.614344939258
4	214140	3545	3.338160779377
4	214141	3545	3.226084103195
4	214142	3545	2.810966102867
4	214143	3545	2.474886051154
4	214144	3545	2.177133399051
4	214145	3545	2.102627336859
4	214146	3545	1.891072471323
4	214147	3545	1.833940902449
4	214148	3545	1.814857387351
4	214149	3545	1.07383213035
4	214150	3545	1.073573707203
4	214151	3545	0.946084927418
4	214152	3545	0.895949732986
4	214153	3545	0.326197752737
4	214154	3545	0.238997446464
4	214155	3545	0.034777765011
4	214156	3545	0
4	214245	3546	1.078786599697
4	214246	3546	1.027072860326
4	214247	3546	0.778369812915
4	214248	3546	0.72070620315
4	214249	3546	0.602231494005
4	214250	3546	0.246372952163
4	214251	3546	0.245628742228
4	214252	3546	0.124138223173
4	214253	3546	2783.9255716527
4	214254	3546	2783.8649823954
4	214255	3546	2783.8311721587
4	214256	3546	2783.4318174314
4	214257	3546	2783.4055065974
4	214258	3546	2783.0076999765
4	214259	3546	2782.4615802124
4	214260	3546	2782.3304263169
4	214261	3546	0.802173082263
4	214262	3546	0.739186983687
4	214263	3546	0.665090657174
4	214264	3546	0.581356330047
4	214265	3546	0.306475571654
4	214266	3546	0.26108241005
4	214267	3546	0.008098115548
4	214268	3546	0
4	214333	3547	0.91527972915
4	214334	3547	0.854206534513
4	214335	3547	0.682546047123
4	214336	3547	0.510078624664
4	214337	3547	0.374662064592
4	214338	3547	0.270637170463
4	214339	3547	0.016388054389
4	214340	3547	0.016099753512
4	214341	3547	2783.0285307527
4	214342	3547	2782.9707214762
4	214343	3547	2782.7064619604
4	214344	3547	2782.6768958536
4	214345	3547	2782.5396623028
4	214346	3547	2782.5041267963
4	214347	3547	2782.3838085754
4	214348	3547	2781.9418484696
4	214349	3547	0.938312461268
4	214350	3547	0.883909358583
4	214351	3547	0.878311307372
4	214352	3547	0.558391487681
4	214353	3547	0.212624096599
4	214354	3547	0.199367787552
4	214355	3547	0
4	214415	3548	0.986109288451
4	214416	3548	0.869336157739
4	214417	3548	0.796358992093
4	214418	3548	0.718809422749
4	214419	3548	0.395732759278
4	214420	3548	0.245896754933
4	214421	3548	2782.7982688961
4	214422	3548	0
4	214457	3549	0.797898846757
4	214458	3549	0.582796491994
4	214459	3549	0.277734579599
4	214460	3549	0.270870063345
4	214461	3549	0
4	214501	3550	0.87383617028
4	214502	3550	0.736629624721
4	214503	3550	0.473872083523
4	214504	3550	0.355679383167
4	214505	3550	0
4	214559	3551	0.862713184429
4	214560	3551	0.706340746177
4	214561	3551	0.673657344124
4	214562	3551	0.052227452132
4	214563	3551	0
4	214601	3552	0.881639368435
4	214602	3552	0.411023459668
4	214603	3552	0.152457535121
4	214604	3552	0
4	214641	3553	0.813892394698
4	214642	3553	0.484426064891
4	214643	3553	0.385526143512
4	214644	3553	0.056149586457
4	214645	3553	0
4	214687	3554	0.89801842491
4	214688	3554	0.786557093069
4	214689	3554	0.764388639988
4	214690	3554	0.475280439814
4	214691	3554	0.473818875535
4	214692	3554	0.25055501994
4	214693	3554	0.164093402233
4	214694	3554	0.085955247312
4	214695	3554	2788.6563862216
4	214696	3554	6.744974661891
4	214697	3554	6.624030863197
4	214698	3554	6.160467734435
4	214699	3554	6.146887077181
4	214700	3554	6.085634957571
4	214701	3554	5.15807301
4	214702	3554	4.549897870198
4	214703	3554	4.549087957908
4	214704	3554	4.439813693307
4	214705	3554	4.39706961945
4	214706	3554	4.064694046148
4	214707	3554	3.954507408636
4	214708	3554	3.936437247811
4	214709	3554	3.832335077387
4	214710	3554	3.817013336428
4	214711	3554	3.776968791379
4	214712	3554	3.572690698376
4	214713	3554	3.558663973554
4	214714	3554	3.390815713168
4	214715	3554	3.382481818143
4	214716	3554	3.212918599006
4	214717	3554	2.818852406748
4	214718	3554	2.208261394164
4	214719	3554	2.205878474996
4	214720	3554	2.189098051565
4	214721	3554	2.16351841847
4	214722	3554	2.103660886101
4	214723	3554	2.053802071494
4	214724	3554	1.893789359965
4	214725	3554	1.88984193587
4	214726	3554	1.7763521923
4	214727	3554	1.096043757991
4	214728	3554	0.839010154218
4	214729	3554	0.610883454428
4	214730	3554	0.355696796854
4	214731	3554	0
4	214815	3555	1.063641992207
4	214816	3555	0.919133208354
4	214817	3555	0.823110941758
4	214818	3555	0.197673884584
4	214819	3555	0
4	214867	3556	0.908560600618
4	214868	3556	0.719028470929
4	214869	3556	0.660072359191
4	214870	3556	0.563264030764
4	214871	3556	0.183010203261
4	214872	3556	0.004703864693
4	214873	3556	2790.5177576525
4	214874	3556	0
4	214919	3557	0.901936128332
4	214920	3557	0.707081511921
4	214921	3557	0.624459084403
4	214922	3557	0.544272690864
4	214923	3557	0.3919583182
4	214924	3557	2791.3421354501
4	214925	3557	0
4	214961	3558	0.575842391555
4	214962	3558	0.402552075482
4	214963	3558	2792.2120650467
4	214964	3558	0
4	215005	3559	0.951345949198
4	215006	3559	0.769753643746
4	215007	3559	0.599715143537
4	215008	3559	0.369430472063
4	215009	3559	0
4	215041	3560	0.678311677605
4	215042	3560	0.596326007068
4	215043	3560	0.045650481615
4	215044	3560	0
4	215083	3561	0.990420819703
4	215084	3561	0.850919627348
4	215085	3561	0.699912291129
4	215086	3561	0.671514760039
4	215087	3561	0.282969791289
4	215088	3561	2795.1215874185
4	215089	3561	0
4	215133	3562	0.933392639151
4	215134	3562	0.854674838309
4	215135	3562	0.771779222919
4	215136	3562	0.682913926807
4	215137	3562	0.537756809811
4	215138	3562	0.074512310466
4	215139	3562	0.061943766507
4	215140	3562	0
4	215183	3563	0.790185937833
4	215184	3563	0.459780309433
4	215185	3563	0.342913189835
4	215186	3563	0.193069133963
4	215187	3563	0
4	215227	3564	0.867874467472
4	215228	3564	0.765345192758
4	215229	3564	0.564827770507
4	215230	3564	0.561825119524
4	215231	3564	0.384391497917
4	215232	3564	0.226443445325
4	215233	3564	0.189392518938
4	215234	3564	0.187988149682
4	215235	3564	2798.0177119057
4	215236	3564	2798.0114166268
4	215237	3564	2797.4297985332
4	215238	3564	2797.3610243819
4	215239	3564	2797.3588511466
4	215240	3564	2796.860822355
4	215241	3564	2796.7871517923
4	215242	3564	2796.7268624359
4	215243	3564	9.970192489303
4	215244	3564	9.569867866674
4	215245	3564	9.090636643625
4	215246	3564	9.044338545446
4	215247	3564	8.715797861278
4	215248	3564	8.614024713036
4	215249	3564	8.493568259777
4	215250	3564	8.395500276639
4	215251	3564	0
4	215313	3565	0.91849046002
4	215314	3565	0.807462818964
4	215315	3565	0.65788037839
4	215316	3565	0.359729477892
4	215317	3565	0.358841296306
4	215318	3565	0.158623751084
4	215319	3565	2797.6919923446
4	215320	3565	0
4	215365	3566	0.950535199882
4	215366	3566	0.667804273353
4	215367	3566	0.394379413803
4	215368	3566	0.120037352113
4	215369	3566	0.108700970925
4	215370	3566	0.064265852243
4	215371	3566	0.002220081391
4	215372	3566	0
4	215413	3567	0.762974953432
4	215414	3567	0.703067022908
4	215415	3567	0.416056993081
4	215416	3567	0.318759775192
4	215417	3567	0.232849479797
4	215418	3567	2799.663987305
4	215419	3567	0
4	215455	3568	0.689096043341
4	215456	3568	0.641351851629
4	215457	3568	0.042712120552
4	215458	3568	0
4	215487	3569	0.42678309281
4	215488	3569	0.403664422792
4	215489	3569	2801.5540814998
4	215490	3569	0
4	215531	3570	0.972662403826
4	215532	3570	0.101508767384
4	215533	3570	2802.4315347414
4	215534	3570	0
4	215585	3571	0.727069287775
4	215586	3571	0.612589741318
4	215587	3571	0.468949901136
4	215588	3571	0.075464090856
4	215589	3571	0.001024335206
4	215590	3571	2803.4192644063
4	215591	3571	0
4	215643	3572	0.860139792247
4	215644	3572	0.793420909044
4	215645	3572	0.717406514255
4	215646	3572	0.663360308233
4	215647	3572	0.40334728855
4	215648	3572	0.130241602149
4	215649	3572	2804.2993455786
4	215650	3572	0
4	215693	3573	0.794166312238
4	215694	3573	0.517173626269
4	215695	3573	0.216471465191
4	215696	3573	0
4	215735	3574	0.895088409554
4	215736	3574	0.094730930392
4	215737	3574	0.082455215545
4	215738	3574	0
4	215769	3575	0.814073254973
4	215770	3575	0.693390503195
4	215771	3575	0.577206004946
4	215772	3575	0.338313483714
4	215773	3575	0
4	215827	3576	0.860853362631
4	215828	3576	0.723887214002
4	215829	3576	0.693635154605
4	215830	3576	0.667713633287
4	215831	3576	0.602138239985
4	215832	3576	0.228765151527
4	215833	3576	0.085386561408
4	215834	3576	0.045909657376
4	215835	3576	2807.9660671516
4	215836	3576	2807.9220125119
4	215837	3576	2807.7318980468
4	215838	3576	2807.694730998
4	215839	3576	2807.6565353689
4	215840	3576	2807.5398276639
4	215841	3576	2807.498062956
4	215842	3576	2807.4968661553
4	215843	3576	20.353543910688
4	215844	3576	19.946096829799
4	215845	3576	19.700410153825
4	215846	3576	19.68296832968
4	215847	3576	19.678169801804
4	215848	3576	19.357391982223
4	215849	3576	19.041309019907
4	215850	3576	18.859876728135
4	215851	3576	18.236172407627
4	215852	3576	18.210709751222
4	215853	3576	17.848303729637
4	215854	3576	17.697125957027
4	215855	3576	17.629434138753
4	215856	3576	17.560542468116
4	215857	3576	17.30158205188
4	215858	3576	17.171696133437
4	215859	3576	17.109479485164
4	215860	3576	16.838408974224
4	215861	3576	16.514622223832
4	215862	3576	16.228933880454
4	215863	3576	16.142559157105
4	215864	3576	16.039842121855
4	215865	3576	15.522855253796
4	215866	3576	15.440887070916
4	215867	3576	15.34499731881
4	215868	3576	15.333773553909
4	215869	3576	15.226500522124
4	215870	3576	15.181488389622
4	215871	3576	15.064086397352
4	215872	3576	14.822156749209
4	215873	3576	14.521863964236
4	215874	3576	14.520720557588
4	215875	3576	14.271683415917
4	215876	3576	14.195733754529
4	215877	3576	14.102720715556
4	215878	3576	14.086220167804
4	215879	3576	13.911011595239
4	215880	3576	13.88322681842
4	215881	3576	13.629078076006
4	215882	3576	13.528879321439
4	215883	3576	13.24357476141
4	215884	3576	12.296177209316
4	215885	3576	12.101873812492
4	215886	3576	11.241276130329
4	215887	3576	11.048324805242
4	215888	3576	11.036837517346
4	215889	3576	10.869009825534
4	215890	3576	10.055592365884
4	215891	3576	9.872386257442
4	215892	3576	9.459254700908
4	215893	3576	9.431741737097
4	215894	3576	8.651929791943
4	215895	3576	8.312542680102
4	215896	3576	8.304289483059
4	215897	3576	7.509358735773
4	215898	3576	7.489708985838
4	215899	3576	7.271718684117
4	215900	3576	7.235806334871
4	215901	3576	6.789775993849
4	215902	3576	6.670152145485
4	215903	3576	6.662415344889
4	215904	3576	6.656109676419
4	215905	3576	6.606249364952
4	215906	3576	6.443307060998
4	215907	3576	6.145609666713
4	215908	3576	6.104120451485
4	215909	3576	5.775765035797
4	215910	3576	5.766914688999
4	215911	3576	5.617556122712
4	215912	3576	5.141765642402
4	215913	3576	5.035910005536
4	215914	3576	4.906842578272
4	215915	3576	4.613634313919
4	215916	3576	4.062022257327
4	215917	3576	4.059980416172
4	215918	3576	4.055478418197
4	215919	3576	3.784919577826
4	215920	3576	3.67290927363
4	215921	3576	3.548185908248
4	215922	3576	3.281288242212
4	215923	3576	3.142796921873
4	215924	3576	3.005778225804
4	215925	3576	2.822499333446
4	215926	3576	2.55824851177
4	215927	3576	2.427397394929
4	215928	3576	2.141385210433
4	215929	3576	1.9729873626
4	215930	3576	1.673031291479
4	215931	3576	1.234635452897
4	215932	3576	0.974643340004
4	215933	3576	0.586707750625
4	215934	3576	0.523903187527
4	215935	3576	0.509494663929
4	215936	3576	0.390680388026
4	215937	3576	0.306202721403
4	215938	3576	0.265360218388
4	215939	3576	0.18491452217
4	215940	3576	0.021277081486
4	215941	3576	0
4	216093	3577	0.592404609302
4	216094	3577	0.48511514228
4	216095	3577	0.477878861652
4	216096	3577	0.357996138607
4	216097	3577	0.277134850804
4	216098	3577	0.263264942026
4	216099	3577	0.254518243242
4	216100	3577	0.241537321226
4	216101	3577	2808.0954042334
4	216102	3577	0.912679000905
4	216103	3577	0.911547319285
4	216104	3577	0.850973397501
4	216105	3577	0.766471721731
4	216106	3577	0
4	216145	3578	1.226249710886
4	216146	3578	1.080508000541
4	216147	3578	0.856908881925
4	216148	3578	0.514416907824
4	216149	3578	0.255483179416
4	216150	3578	2808.8861158615
4	216151	3578	0
4	216207	3579	0.557321353241
4	216208	3579	0.503692266476
4	216209	3579	0.496228316371
4	216210	3579	0.464568080582
4	216211	3579	0.455788061301
4	216212	3579	0.393437060514
4	216213	3579	2809.178528472
4	216214	3579	0
4	216271	3580	0.966122849005
4	216272	3580	0.737576606942
4	216273	3580	0.648824865396
4	216274	3580	0.561105909978
4	216275	3580	0.361888964905
4	216276	3580	0.288564102835
4	216277	3580	0.216931654153
4	216278	3580	0.206051366013
4	216279	3580	2809.7822406405
4	216280	3580	2809.565044632
4	216281	3580	2809.2976979635
4	216282	3580	2809.1531614139
4	216283	3580	2808.8885496006
4	216284	3580	2808.427328233
4	216285	3580	2808.3553027121
4	216286	3580	2807.9068930972
4	216287	3580	2.219636971723
4	216288	3580	2.163646487913
4	216289	3580	2.038760171414
4	216290	3580	1.877870972865
4	216291	3580	1.788564275271
4	216292	3580	1.68480502331
4	216293	3580	1.122861674
4	216294	3580	1.112280296698
4	216295	3580	1.08809463713
4	216296	3580	1.05739161376
4	216297	3580	0.816012201635
4	216298	3580	0.651986814085
4	216299	3580	0.602807186083
4	216300	3580	0.549102374072
4	216301	3580	0.47591722427
4	216302	3580	0.077328695158
4	216303	3580	0
4	216367	3581	0.167958278706
4	216368	3581	0.147228791221
4	216369	3581	0.138299350924
4	216370	3581	0.025749331153
4	216371	3581	0
4	216427	3582	0.9414315351
4	216428	3582	0.828468669214
4	216429	3582	0.798693894834
4	216430	3582	0.797704125783
4	216431	3582	0.795524327529
4	216432	3582	0.773969767838
4	216433	3582	0.758606597862
4	216434	3582	0.547465960595
4	216435	3582	1.933160683425
4	216436	3582	1.709324882414
4	216437	3582	1.608485683268
4	216438	3582	1.135407506415
4	216439	3582	0.935989354467
4	216440	3582	0.860258848302
4	216441	3582	0.780697708832
4	216442	3582	0.724144741844
4	216443	3582	0.155361511063
4	216444	3582	0.054125583141
4	216445	3582	0
4	216501	3583	1.296525664612
4	216502	3583	1.079374308521
4	216503	3583	1.025974632289
4	216504	3583	0.996966793981
4	216505	3583	0.749675934851
4	216506	3583	0.724284555795
4	216507	3583	0.611579190957
4	216508	3583	0.578159744072
4	216509	3583	0.344539987297
4	216510	3583	0.042199306753
4	216511	3583	0
4	216547	3584	1.398725922821
4	216548	3584	1.365966865183
4	216549	3584	1.024530846791
4	216550	3584	0.928615986155
4	216551	3584	0.259627965405
4	216552	3584	0.19391551149
4	216553	3584	2811.8144208413
4	216554	3584	0
4	216595	3585	0.742160197891
4	216596	3585	0.727498188044
4	216597	3585	0.541736537177
4	216598	3585	0.527692678686
4	216599	3585	0
4	216641	3586	0.822013931525
4	216642	3586	0.761197767964
4	216643	3586	0.3643661798
4	216644	3586	0.228022352652
4	216645	3586	0
4	216697	3587	0.872922330701
4	216698	3587	0.578983226295
4	216699	3587	0.41226944233
4	216700	3587	0.273770703126
4	216701	3587	0.246623195004
4	216702	3587	0.16511693743
4	216703	3587	0.041608276286
4	216704	3587	0.041475668717
4	216705	3587	2814.7812140055
4	216706	3587	2814.7663635568
4	216707	3587	2813.8391102971
4	216708	3587	2813.7842307977
4	216709	3587	2813.7272438176
4	216710	3587	2813.5835567644
4	216711	3587	2813.39185104
4	216712	3587	2812.8167848331
4	216713	3587	3.953064732108
4	216714	3587	3.692490951297
4	216715	3587	3.357913112969
4	216716	3587	2.841267994214
4	216717	3587	2.468429657754
4	216718	3587	2.339535403801
4	216719	3587	2.116925418726
4	216720	3587	1.934320390856
4	216721	3587	1.737868618749
4	216722	3587	1.479973843729
4	216723	3587	0.926087538018
4	216724	3587	0.916150213254
4	216725	3587	0.767870455076
4	216726	3587	0.735466322124
4	216727	3587	0.430957392129
4	216728	3587	0.027153878985
4	216729	3587	0
4	216807	3588	0.821792019574
4	216808	3588	0.640969581571
4	216809	3588	0.629661310238
4	216810	3588	0.542650799748
4	216811	3588	0
4	216851	3589	0.81806787589
4	216852	3589	0.285627549242
4	216853	3589	0.237977819687
4	216854	3589	0.16685223029
4	216855	3589	0.050165469084
4	216856	3589	0.048717269386
4	216857	3589	2814.620145608
4	216858	3589	0
4	216901	3590	0.677354608001
4	216902	3590	0.566190520861
4	216903	3590	0.535547993353
4	216904	3590	0.422704002008
4	216905	3590	0.342744449386
4	216906	3590	0.207024440394
4	216907	3590	0.043915011776
4	216908	3590	0.025607166154
4	216909	3590	2815.2165087983
4	216910	3590	2815.1964020796
4	216911	3590	2815.1081273777
4	216912	3590	2814.9908930646
4	216913	3590	2814.70138391
4	216914	3590	2813.7886347173
4	216915	3590	2813.5320544796
4	216916	3590	2813.3756533099
4	216917	3590	2.977273710178
4	216918	3590	2.944479174496
4	216919	3590	2.940996779174
4	216920	3590	2.843584478542
4	216921	3590	2.754624436771
4	216922	3590	2.608253189634
4	216923	3590	2.393300102139
4	216924	3590	2.034350034297
4	216925	3590	1.865769101665
4	216926	3590	1.765523324957
4	216927	3590	1.419225646433
4	216928	3590	1.176686046871
4	216929	3590	1.008556156813
4	216930	3590	0.391383977525
4	216931	3590	0.150529893372
4	216932	3590	0
4	217001	3591	0.627028690135
4	217002	3591	0.45935388682
4	217003	3591	0.312993265628
4	217004	3591	0.27148719876
4	217005	3591	0.001255026459
4	217006	3591	2814.2757497584
4	217007	3591	0
4	217063	3592	0.942699090993
4	217064	3592	0.691577092305
4	217065	3592	0.440452694377
4	217066	3592	0.289721265596
4	217067	3592	0
4	217107	3593	0.78073135089
4	217108	3593	0.539490219861
4	217109	3593	0.364850418742
4	217110	3593	0.160911419781
4	217111	3593	0.141655978135
4	217112	3593	2815.9390633852
4	217113	3593	0
4	217152	3594	2816.8105098011
4	217153	3594	3.53339739523
4	217154	3594	0
4	217192	3595	0.608391182912
4	217193	3595	0.60000983027
4	217194	3595	0.161355436323
4	217195	3595	0.073901865564
4	217196	3595	0
4	217242	3596	0.899051905112
4	217243	3596	0.837635319567
4	217244	3596	0.814625370703
4	217245	3596	0.78004311595
4	217246	3596	0.656753012926
4	217247	3596	0.599423414455
4	217248	3596	0.352007835544
4	217249	3596	0.312150475358
4	217250	3596	2818.7951956119
4	217251	3596	5.49767910361
4	217252	3596	5.448974592451
4	217253	3596	5.400058210025
4	217254	3596	5.338871780589
4	217255	3596	5.062779485761
4	217256	3596	4.987780070045
4	217257	3596	4.909085720235
4	217258	3596	4.864032369487
4	217259	3596	4.837676349915
4	217260	3596	4.808285501023
4	217261	3596	4.751455458415
4	217262	3596	4.560953956675
4	217263	3596	4.242647932325
4	217264	3596	4.232358442765
4	217265	3596	4.140990586955
4	217266	3596	3.911566345152
4	217267	3596	3.851860661244
4	217268	3596	3.729785942523
4	217269	3596	3.016840939482
4	217270	3596	2.891538994802
4	217271	3596	2.756938592103
4	217272	3596	2.730317409043
4	217273	3596	2.648103270992
4	217274	3596	2.487235137781
4	217275	3596	2.251315609878
4	217276	3596	2.210145467178
4	217277	3596	2.19694028497
4	217278	3596	1.668117563944
4	217279	3596	1.66636850113
4	217280	3596	1.464794249
4	217281	3596	1.42597843934
4	217282	3596	1.301982317455
4	217283	3596	0.730772038649
4	217284	3596	0.447969311415
4	217285	3596	0.271661056146
4	217286	3596	0.246480302743
4	217287	3596	0.242057962279
4	217288	3596	0.180651457531
4	217289	3596	0
4	217376	3597	1.091604636285
4	217377	3597	0.905090060012
4	217378	3597	0.830892670717
4	217379	3597	0.433859470597
4	217380	3597	0.405789339191
4	217381	3597	0.302627786354
4	217382	3597	0.21514600887
4	217383	3597	0.051228237841
4	217384	3597	2819.6097632369
4	217385	3597	2819.3761520969
4	217386	3597	2819.2351502267
4	217387	3597	2818.8703972753
4	217388	3597	2818.8347933473
4	217389	3597	2818.6452444163
4	217390	3597	2818.5134818422
4	217391	3597	2818.3691332594
4	217392	3597	0.941377033107
4	217393	3597	0.869843962501
4	217394	3597	0.843131267752
4	217395	3597	0.617082862922
4	217396	3597	0.508413657328
4	217397	3597	0
4	217460	3598	0.917871586989
4	217461	3598	0.849424280157
4	217462	3598	0.442010836244
4	217463	3598	0.409598062164
4	217464	3598	0.313528768083
4	217465	3598	0.169674102454
4	217466	3598	0.049728203806
4	217467	3598	0
4	217524	3599	0.972833954591
4	217525	3599	0.530359792029
4	217526	3599	0.316264154503
4	217527	3599	0.264642835282
4	217528	3599	0
4	217568	3600	0.618401410257
4	217569	3600	0.189538417879
4	217570	3600	0.144077806616
4	217571	3600	0

